56

Bi 0.507381 3.698535 8.538183
Bi 2.178057 8.882563 6.254951
Bi 4.863496 6.669522 6.254951
Bi 3.192820 1.485494 8.538183
Bi 4.863496 1.485494 1.141616
Bi 0.507381 8.882563 13.651518
Bi 2.178057 3.698535 1.141616
Bi 3.192820 6.669522 13.651518
Bi 5.327916 8.957504 3.184385
Bi 0.042962 1.410553 11.608749
Bi 2.728400 3.773475 11.608749
Bi 0.042962 6.594582 10.580952
Bi 2.642477 1.410553 4.212182
Bi 2.642477 6.594582 3.184385
Bi 2.728400 8.957504 10.580952
Bi 5.327916 3.773475 4.212182
O 4.248010 3.070313 10.004818
O 0.312220 9.893749 1.150492
O 2.373219 4.709721 13.642642
O 1.762416 8.243134 2.295687
O 0.923023 3.059106 12.497447
O 4.248010 8.254342 12.184882
O 0.923023 8.243134 9.692254
O 3.808307 8.254342 4.788316
O 0.312220 4.709721 6.246075
O 1.122868 7.297743 4.788316
O 3.808307 3.070313 2.608251
O 5.090598 1.895861 7.704442
O 2.997659 0.474307 6.246075
O 3.608462 7.308951 9.692254
O 1.503486 10.101390 11.945396
O 2.997659 5.658336 1.150492
O 1.122868 2.113715 2.608251
O 4.447855 2.124923 5.100880
O 2.405159 8.472195 14.485259
O 2.373219 9.893749 8.547059
O 0.280279 8.472195 7.088692
O 3.867392 0.266666 2.847737
O 3.608462 2.124923 12.497447
O 4.188925 0.266666 10.244304
O 0.280279 3.288167 0.307875
O 2.405159 3.288167 7.704442
O 5.058658 5.658336 8.547059
O 5.058658 0.474307 13.642642
O 4.188925 5.450695 11.945396
O 2.965718 7.079890 7.088692
O 2.965718 1.895861 0.307875
O 5.090598 7.079890 14.485259
O 3.867392 5.450695 4.548829
O 4.447855 7.308951 2.295687
O 1.762416 3.059106 5.100880
O 1.503486 4.917362 10.244304
O 1.181953 4.917362 2.847737
O 1.562571 2.113715 10.004818
O 1.181953 10.101390 4.548829
O 1.562571 7.297743 12.184882
