60

Si 6.991297 3.888366 10.754321
Si 4.386199 7.489131 10.754321
Si 0.095867 3.198798 13.855448
Si 3.888366 4.386199 10.754321
Si 7.489131 6.991297 10.754321
Si 0.593701 0.095867 13.855448
Si 3.198798 3.696632 13.855448
Si 3.696632 0.593701 13.855448
Si 0.593701 3.696632 5.652191
Si 3.198798 0.095867 5.652191
Si 7.489131 4.386199 2.551065
Si 3.696632 3.198798 5.652191
Si 0.095867 0.593701 5.652191
Si 6.991297 7.489131 2.551065
Si 4.386199 3.888366 2.551065
Si 3.888366 6.991297 2.551065
W 1.896249 1.896249 9.622108
W 5.688748 5.688748 14.987661
W 5.688748 5.688748 6.784405
W 1.896249 1.896249 1.418852
O 0.193015 2.847711 9.785172
O 3.599483 0.944787 9.785172
O 6.640210 3.985514 14.824597
O 2.847711 3.599483 9.785172
O 0.944787 0.193015 9.785172
O 7.391982 6.640210 14.824597
O 3.985514 4.737286 14.824597
O 4.737286 7.391982 14.824597
O 7.391982 4.737286 6.621340
O 3.985514 6.640210 6.621340
O 0.944787 3.599483 1.581916
O 4.737286 3.985514 6.621340
O 6.640210 7.391982 6.621340
O 0.193015 0.944787 1.581916
O 3.599483 2.847711 1.581916
O 0.041596 2.191018 5.949707
O 2.847711 0.193015 1.581916
O 3.834095 5.983516 10.456806
O 1.601481 3.750903 14.152963
O 5.393980 3.834095 10.456806
O 5.983516 7.543401 10.456806
O 0.041596 1.601481 14.152963
O 3.750903 2.191018 14.152963
O 2.191018 0.041596 14.152963
O 3.469651 7.262142 4.101628
O 4.115347 3.469651 4.101628
O 7.262142 0.322848 4.101628
O 0.322848 4.115347 4.101628
O 4.115347 0.322848 12.304885
O 3.469651 4.115347 12.304885
O 0.322848 7.262142 12.304885
O 7.262142 3.469651 12.304885
O 5.393980 7.543401 2.253549
O 3.834095 5.393980 2.253549
O 7.543401 5.983516 2.253549
O 1.601481 0.041596 5.949707
O 2.191018 3.750903 5.949707
O 5.983516 3.834095 2.253549
O 3.750903 1.601481 5.949707
O 7.543401 5.393980 10.456806
