20

Mg 6.371228 3.884238 0.073188
Mn -0.000006 0.000044 2.600854
Mn 0.000013 3.003611 -1.501307
Mn 3.185633 1.942130 0.036602
Mn 3.185621 -1.061493 -1.062942
Cu 3.185608 1.942121 2.637472
Cu 0.000006 3.003625 1.099541
Cu 3.185633 -1.061503 1.537924
O 5.293495 0.077663 -1.972036
O 1.077734 3.806544 2.045255
O 5.293233 2.401658 -1.121291
O 1.953321 2.206762 -1.200346
O 3.030207 0.006647 0.074850
O 0.874599 4.699351 -1.192228
O 4.417793 3.709385 -3.184247
O 3.341034 3.877604 -0.001670
O 1.078020 1.482601 1.194461
O 4.417914 1.677461 1.273553
O 5.496654 -0.815092 1.265419
O 1.953423 0.174851 3.257452
