44

Mg 3.769465 0.000000 -1.852192
Mg 3.769465 3.816414 2.655068
Mn 1.456491 6.709562 4.037161
Mn 6.082439 2.893147 5.780234
Mn 6.082439 0.923267 1.272975
Mn 1.456491 4.739681 -0.470099
Mn 0.000000 0.000000 0.000000
Mn 0.000000 3.816414 4.507260
P 4.465821 0.620549 4.172425
P 3.073109 4.436963 5.644970
P 3.073109 7.012280 1.137710
P 4.465821 3.195865 -0.334834
P 6.469465 6.037926 2.993881
P 1.069465 2.221512 6.823514
P 1.069465 1.594902 2.316255
P 6.469465 5.411317 -1.513379
O 5.939199 4.724744 2.489455
O 1.599731 0.908330 7.327940
O 1.599731 2.908085 2.820681
O 5.939199 6.724499 -2.017805
O 2.115650 4.724988 4.620430
O 5.423280 0.908574 5.196965
O 5.423280 2.907841 0.689706
O 2.115650 6.724255 0.113171
O 4.634753 1.668277 3.130345
O 2.904177 5.484691 6.687050
O 2.904177 5.964552 2.179791
O 4.634753 2.148138 -1.376915
O 5.014105 6.838358 3.542959
O 2.524825 3.021944 6.274436
O 2.524825 0.794471 1.767177
O 5.014105 4.610885 -0.964301
O 2.953308 3.533725 0.321465
O 4.585622 7.350139 0.481411
O 4.585622 4.099104 4.988670
O 2.953308 0.282689 4.828725
O 0.207042 1.680062 1.231929
O 7.331888 5.496476 -0.429052
O 7.331888 5.952767 4.078207
O 0.207042 2.136352 5.739188
O 7.250996 4.545479 -2.585187
O 0.287934 0.729065 3.388063
O 0.287934 3.087349 7.895323
O 7.250996 6.903764 1.922072
