42

Mg 0.724328 0.988424 2.402439
Mg 0.754961 1.038394 7.357992
Mg 3.014416 4.121679 7.170725
Mg 0.757945 1.040985 12.301446
Mg 5.307215 7.266884 16.857387
Mg 5.301913 7.253065 21.805564
V 0.020380 2.629972 5.108187
V 3.014815 4.119249 9.602934
V 0.010308 2.637747 10.040136
V 3.019088 1.533307 7.021806
V 3.034784 4.146320 12.105302
V 3.031424 4.149436 14.580815
V 0.008559 2.633060 14.995935
V 3.032241 1.518302 11.964607
V 3.019143 1.521283 16.912655
V 3.033385 4.155060 17.056050
V 3.014954 4.135425 19.507448
V 5.302331 7.251134 26.750995
O 1.539818 2.104646 4.989964
O 1.582466 2.162567 7.325581
O 1.532034 4.557135 7.395461
O 4.357939 3.509765 9.200734
O 1.702204 4.749549 10.090350
O 1.573974 2.160325 9.956619
O 4.487652 3.719263 11.863977
O 4.492216 6.149472 11.942548
O 1.569065 4.576823 12.360028
O 1.594868 2.149968 12.236856
O 4.479184 6.133630 14.245220
O 4.361317 3.555354 14.140756
O 1.690552 4.731368 15.017067
O 1.579573 2.156083 14.907598
O 4.490152 3.708403 16.799874
O 4.467411 6.145176 16.925036
O 1.578538 2.142888 17.176755
O 1.567298 4.578474 17.304067
O 4.484244 6.130670 19.209650
O 4.360015 3.558794 19.088230
O 1.648424 4.730675 19.900692
O 4.463138 6.126419 21.874469
O 4.512850 3.684119 21.737663
O 4.513661 6.174116 24.206477
