36

Mg 0.000819 0.001113 0.001308
Mg 4.266026 5.799078 6.812784
Ti 3.031215 4.120520 4.840807
Ti 7.296422 9.918485 11.652283
Ti 1.234590 1.678256 1.971623
Ti 5.499797 7.476220 8.783098
P 0.393380 3.576270 6.585861
P 3.870590 7.472513 4.028144
P 6.398280 3.445084 6.413458
P 2.133073 8.150217 7.208572
P 4.658587 4.123637 9.593453
P 8.135797 8.017977 7.036914
O 0.966095 4.204171 3.928061
O 2.709601 2.158282 5.120371
O 0.493186 2.166031 7.286206
O 4.271102 4.440129 3.642492
O 0.005895 4.578689 7.263267
O 2.065316 4.294165 6.241195
O 2.203039 7.857832 3.692084
O 3.764924 6.231291 4.970786
O 1.552783 8.207796 5.916033
O 5.037807 4.248163 6.144136
O 0.772600 7.398423 7.901360
O 3.301637 2.958396 9.090356
O 5.231302 8.636287 4.531885
O 7.762762 4.193696 5.724565
O 3.497555 7.352917 7.476244
O 6.974808 3.385570 7.707248
O 4.758393 5.365525 8.652741
O 6.330523 3.743949 9.927938
O 6.468246 7.297081 7.385346
O 8.523155 7.018787 6.357410
O 4.257948 7.152669 9.981079
O 8.030131 9.429211 6.338295
O 5.817990 9.438487 8.500805
O 7.566844 7.391788 9.693390
