52

Ni 3.219172 7.924087 0.011993
Ni 3.219777 3.952614 7.091059
Ni 6.437990 3.934179 7.092895
Ni 0.000090 -0.000183 0.000056
Sn 4.824023 2.747367 12.451683
Sn 1.614547 5.157945 1.730619
Sn 1.605578 6.750021 8.824830
Sn 4.832959 1.155752 5.357813
P 1.607426 2.741606 13.274416
P 4.831137 5.163897 0.907886
P 4.825330 6.692968 7.996507
P 1.613188 1.212734 6.186051
P 4.825877 3.095571 9.680580
P 1.612577 4.810465 4.501765
P 1.607561 7.078677 11.587754
P 4.830783 0.827622 2.594676
O 0.311638 4.732309 5.342189
O 3.531364 3.185647 8.831337
O 6.127665 0.734124 1.755488
O 2.905081 7.163079 12.425450
O 6.126365 3.173967 8.840057
O 2.907643 4.720648 5.351065
O 0.311207 7.171838 12.427141
O 3.533328 0.742774 1.757221
O 1.613858 2.645453 6.777533
O 4.824654 5.260702 7.403820
O 4.832264 6.601363 0.326439
O 1.606299 1.304545 13.855963
O 4.812691 1.016242 13.542189
O 1.625866 6.889436 0.640496
O 1.600607 5.010257 7.726523
O 4.837865 2.895636 6.454547
O 4.824003 1.771779 10.508486
O 1.614425 6.134233 3.673363
O 1.603807 5.762569 10.748209
O 4.834833 2.143530 3.433938
O 2.826640 1.033306 5.252043
O 6.038408 6.857570 8.933701
O 3.618960 5.000091 1.846439
O 0.392165 2.910997 12.338487
O 3.611974 6.872204 8.930231
O 0.400046 1.047870 5.248573
O 2.819661 2.905404 12.335565
O 6.046405 4.994586 1.843489
O 4.829012 7.665977 3.725467
O 1.609460 0.239956 10.456680
O 1.606537 3.719383 3.369469
O 4.832116 4.185793 10.812946
O 4.829894 7.738792 6.883351
O 1.608662 0.167569 7.299292
O 1.608849 3.783779 0.218678
O 4.829695 4.122233 13.963455
