36

Ni 2.797000 3.814066 9.020045
Ni 2.797141 1.409307 6.605200
Ni 2.770417 3.783365 13.749196
Ni 0.020809 2.427421 4.825561
Ni 2.770894 6.235276 16.207355
Ni 2.802500 3.829297 16.122960
Ni 4.912847 6.706295 15.806471
Ni 2.825340 3.861791 18.476083
Ni 5.601077 5.197973 18.022016
Ni 2.825638 1.430876 16.036418
Ni 0.018137 2.459529 14.236270
Ni 4.940542 6.750569 25.236176
O 1.444430 1.964737 4.784105
O 1.481384 2.019079 6.866199
O 1.449161 4.126758 6.955862
O 3.931534 3.215858 8.542623
O 1.428380 1.949605 9.515378
O 1.606921 4.453217 9.444114
O 1.460149 1.995992 11.590350
O 4.222277 3.496901 11.120127
O 4.140743 5.646112 11.218773
O 1.430951 4.103583 11.678825
O 3.909188 3.194140 13.264349
O 4.223933 5.762995 13.393815
O 1.486598 2.032058 14.209985
O 1.618442 4.376460 14.258016
O 4.119104 3.460449 15.860095
O 1.504864 2.059294 16.300261
O 4.109508 5.611056 15.941977
O 1.489684 4.196543 16.383123
O 3.983589 3.283527 17.981491
O 4.122409 5.631302 18.037975
O 1.640339 4.467127 18.914324
O 4.210206 3.526024 20.558596
O 4.140850 5.656871 20.650317
O 4.214017 5.758780 22.795856
