14

Sb 1.820804 4.231349 2.177185
Sb 3.074251 1.267937 1.957132
Sb 6.715860 1.267937 1.957132
Sb 7.969307 4.231349 2.177185
O 0.000000 5.034184 2.236812
O 1.270903 2.203091 2.026572
O 2.102221 4.773875 0.354504
O 2.792835 0.725400 0.053868
O 3.624152 3.296195 2.107745
O 4.895055 0.465102 1.897505
O 6.165959 3.296195 2.107745
O 8.519208 2.203091 2.026572
O 6.997276 0.725400 0.053868
O 7.687890 4.773875 0.354504
