42

Mg 0.691424 0.932343 2.350542
Mg 0.676313 0.936993 7.145398
Mg 2.938050 3.985223 11.779136
Mg 0.752898 0.969727 12.025780
Mg 2.966062 3.985701 6.991909
Mg 5.176092 6.992402 21.239718
Ni 2.947350 3.982890 9.365556
Ni 2.947303 1.462411 6.956016
Ni 2.924482 3.985037 14.173940
Ni 0.021141 2.542210 4.855597
Ni 2.924772 1.444773 11.743995
Ni 2.984649 4.002349 16.635117
Ni 5.211535 7.046848 16.413646
Ni 2.960948 3.968878 19.010374
Ni 5.898850 5.427624 18.753779
Ni 2.960741 1.468483 16.619678
Ni 0.038316 2.541698 14.511881
Ni 5.195490 7.011341 26.058975
O 1.525127 2.022715 4.943649
O 1.493262 2.026844 7.089501
O 1.522319 4.326278 7.146727
O 4.170597 3.343015 9.024219
O 1.448040 2.030257 9.675113
O 1.716364 4.638808 9.717956
O 1.504394 2.048978 11.883852
O 4.406316 3.648504 11.630458
O 4.449616 5.985110 11.692000
O 1.452007 4.323194 11.876794
O 4.161646 3.328296 13.845235
O 4.404140 5.974190 13.856739
O 1.630941 2.163222 14.636307
O 1.723577 4.630893 14.551168
O 4.346291 3.622861 16.483014
O 1.505015 2.049704 16.708608
O 4.392405 5.929273 16.505494
O 1.628919 4.399751 16.780901
O 4.234494 3.395841 18.702860
O 4.348910 5.857772 18.628160
O 1.625863 4.589321 19.275111
O 4.443739 3.529730 21.308213
O 4.403809 5.896734 21.360420
O 4.442492 5.968626 23.645412
