13

Ba 0.000000 0.000000 0.000000
W 2.029912 2.500960 5.241259
W 4.059829 -0.271959 5.241259
W 2.029912 2.500960 2.040948
W 4.059829 -0.271959 2.040948
O 2.100857 0.768967 5.200340
O 3.988884 -1.994442 5.200340
O 0.000000 3.454475 5.200340
O 3.988884 1.460033 2.081866
O 6.089741 -1.225475 2.081866
O 2.100857 -1.050429 2.081866
O 2.029912 2.500960 0.000000
O 4.059829 -0.271959 0.000000
