14

Cr 1.676639 5.558415 2.326772
Cr 3.870333 0.574954 1.788843
Cr 7.223610 0.574954 1.788843
Cr 9.417304 5.558415 2.326772
O 0.000000 0.134235 0.014490
O 1.564301 3.911630 2.149017
O 2.011931 6.106517 0.659155
O 3.535040 0.026840 0.002897
O 3.982670 2.221739 1.966598
O 5.546971 5.999134 0.647564
O 7.111273 2.221739 1.966598
O 9.529641 3.911630 2.149017
O 7.558902 0.026840 0.002897
O 9.082012 6.106517 0.659155
