56

Mg 4.814281 7.449705 11.612851
Mg 4.812901 4.103647 4.439106
Mg 1.603804 0.252558 2.750987
Mg 1.605300 3.598670 9.925608
Ni 3.209149 7.706208 14.357686
Ni 3.209084 3.851105 7.182249
Ni 0.000103 3.855127 7.175781
Ni 6.418092 7.702287 14.364211
Sn 4.813704 2.735020 12.681879
Sn 1.604382 4.967305 1.682403
Sn 1.604844 6.593730 8.859919
Sn 4.813274 1.108634 5.504465
P 1.604863 2.721949 13.330315
P 4.813209 4.980361 1.033939
P 4.815199 6.575473 8.210238
P 1.602912 1.126891 6.154174
P 4.813389 2.900228 9.913818
P 1.604754 4.802159 4.450508
P 1.604273 6.758521 11.628093
P 4.813813 0.943835 2.736232
O 0.287885 4.697978 5.260929
O 3.496719 3.007492 9.101448
O 6.130984 0.835313 1.926572
O 2.920256 6.863605 12.440907
O 6.130297 3.004370 9.103555
O 2.921437 4.694795 5.262863
O 0.287050 6.866973 12.437696
O 3.497868 0.838689 1.923333
O 1.599985 2.496770 6.839942
O 4.818209 5.205524 7.524556
O 4.813267 6.349743 0.348212
O 1.604857 1.352497 14.015942
O 4.812805 0.881838 13.405319
O 1.605332 6.820417 0.958777
O 1.608618 4.741799 8.132059
O 4.809667 2.960526 6.232453
O 4.812696 1.565465 10.744635
O 1.605389 6.136929 3.619662
O 1.602315 5.423668 10.796593
O 4.815751 2.278719 3.567718
O 2.792606 0.959820 5.173819
O 6.002044 6.743916 9.196954
O 3.623990 4.811073 2.014209
O 0.416844 2.891662 12.346065
O 3.625517 6.742613 9.190622
O 0.416061 0.958548 5.167458
O 2.794070 2.891353 12.350016
O 6.001235 4.810748 2.018189
O 4.811765 7.541707 3.854454
O 1.606320 0.160696 10.509900
O 1.600916 3.689155 3.332396
O 4.817118 4.013225 11.031901
O 4.814384 0.014999 7.191708
O 1.603656 7.687249 7.172618
O 1.604613 3.871235 14.349711
O 4.813440 3.830983 0.014658
