12

Co 2.513949 2.143182 0.677054
Co 0.391558 1.058791 8.643369
Co 2.513949 2.143182 3.983157
Co 0.391558 1.058791 5.337266
O 0.684767 1.851654 3.699201
O 2.220740 1.350318 5.621222
O 2.220740 1.350318 8.359413
O 0.684767 1.851654 0.961010
O 2.711875 2.678383 2.330106
O 0.193632 0.523589 6.990317
O 1.452754 -0.726377 0.000000
O 1.452754 -0.726377 4.660212
