42

Mg 0.717313 0.978377 2.229133
Mg 0.778187 1.063025 7.295810
Mg 3.125841 4.310765 11.657337
Mg 0.744416 1.029129 12.100539
Mg 3.055749 4.225509 6.570327
Mg 5.441211 7.516024 20.890356
Mn 3.094318 4.275910 9.100440
Mn 3.090505 1.684850 6.786222
Mn 3.118710 4.305988 14.085003
Mn 0.009398 2.592184 4.796984
Mn 3.142433 1.752484 11.802601
Mn 3.092944 4.274022 16.493973
Mn 5.460365 7.552399 15.972634
Mn 3.077405 4.253084 18.918170
Mn 0.054442 2.660587 9.811881
Mn 3.043021 6.806722 21.213312
Mn 6.147826 5.891390 23.213654
Mn 5.421716 7.497316 25.742894
O 1.584561 2.197255 4.742189
O 1.593172 2.130891 6.954249
O 1.560299 4.531662 6.864111
O 4.374936 3.619280 8.629618
O 1.658751 2.292653 9.769234
O 1.850609 4.956396 9.620886
O 1.566019 2.162422 11.862396
O 4.634435 4.051505 11.364195
O 4.606768 6.435006 11.293868
O 1.672556 4.677760 11.973599
O 4.506905 3.846649 13.798306
O 4.599445 6.339054 13.439312
O 1.553836 2.146445 14.549394
O 1.752126 4.743839 14.455191
O 4.525384 3.927163 16.241228
O 1.502712 2.079119 16.699532
O 4.666299 6.438343 16.304456
O 1.631313 4.591319 16.730991
O 4.423986 3.781262 18.533415
O 4.615751 6.380662 18.444493
O 1.728855 4.729564 19.265028
O 4.534776 3.919570 21.075861
O 4.622159 6.387416 21.151796
O 4.529526 6.251179 23.222325
