24

Mg 0.625466 1.855689 2.754127
Mg 2.317474 1.769550 11.547342
V 1.471470 -0.735727 8.536911
V 1.902214 0.540685 -0.071113
V 1.040727 3.084554 14.372582
V 2.203750 1.434226 5.719608
V 0.739190 2.191013 8.581862
V 2.743030 3.032445 -0.218726
V 0.199911 0.592793 14.520196
V 2.910003 3.527256 2.923814
V 0.032937 0.097983 11.377656
O 0.000000 0.000000 0.000000
O 2.508748 2.339369 1.955911
O 0.434193 1.285870 12.345559
O 0.873244 2.587862 -0.399636
O 2.069697 1.037376 14.701105
O 1.694545 -0.075329 2.139834
O 1.248395 3.700567 12.161635
O 1.832266 0.333127 4.591360
O 1.110675 3.292111 9.710110
O 1.127767 3.341810 4.461026
O 1.815173 0.283428 9.840444
O 0.377482 1.118216 7.169323
O 2.565458 2.507022 7.132147
