80

Mg 3.262497 1.358002 11.525253
Mg 2.010183 7.675770 6.948878
Mg 3.262497 5.874887 16.185944
Mg 0.626157 7.675770 16.185944
Mg 4.646523 1.358002 2.288188
Mg 2.010183 3.158884 2.288188
Mg 0.626157 3.158884 11.525253
Mg 4.646523 5.874887 6.948878
Si 2.978110 5.952975 4.201720
Si 3.789386 7.563489 9.712664
Si 4.119635 7.563489 0.475598
Si 4.930910 1.436090 14.272412
Si 0.341770 3.080796 5.035346
Si 2.294570 7.597682 13.438786
Si 1.153046 5.987168 9.712664
Si 3.789386 3.046603 17.998534
Si 4.119635 3.046603 8.761468
Si 4.930910 5.952975 13.438786
Si 2.294570 3.080796 14.272412
Si 2.978110 1.436090 5.035346
Si 1.483295 1.470282 8.761468
Si 0.341770 7.597682 4.201720
Si 1.483295 5.987168 0.475598
Si 1.153046 1.470282 17.998534
Ni 1.980498 9.014846 2.300621
Ni 3.292182 0.018926 16.173511
Ni 4.616838 0.018926 6.936445
Ni 0.655842 9.014846 11.537687
Ni 1.980498 4.497960 6.936445
Ni 3.292182 4.535811 11.537687
Ni 4.616838 4.535811 2.300621
Ni 0.655842 4.497960 16.173511
O 4.914750 4.515504 12.703220
O 1.613403 0.127963 17.231137
O 0.357931 4.518268 5.770912
O 3.764161 3.066956 1.174622
O 1.127821 1.449929 1.174622
O 4.862123 1.849258 17.539341
O 4.988694 5.964900 15.079270
O 0.283987 7.585757 5.842204
O 3.764161 7.583842 8.062444
O 4.988694 1.448014 12.631928
O 2.278410 4.518268 15.007978
O 4.144859 3.066956 10.411688
O 3.659277 8.905808 1.242995
O 2.352354 7.585757 15.079270
O 2.994271 9.032389 5.770912
O 1.613403 4.644849 10.480061
O 2.278410 0.001382 12.703220
O 0.862378 6.944522 12.894981
O 1.773962 6.944522 3.657915
O 3.046897 6.366144 0.934791
O 4.144859 7.583842 17.299510
O 2.920327 5.964900 5.842204
O 4.249743 4.388922 17.231137
O 0.862378 2.427636 14.816217
O 1.508519 1.449929 10.411688
O 2.920327 1.448014 3.394862
O 3.659277 4.388922 7.994071
O 1.127821 5.966815 8.062444
O 1.022937 4.644849 1.242995
O 3.498719 6.606135 12.894981
O 0.357931 0.001382 3.466154
O 4.410302 6.606135 3.657915
O 4.410302 2.089249 5.579151
O 4.249743 8.905808 10.480061
O 1.508519 5.966815 17.299510
O 1.022937 0.127963 7.994071
O 1.773962 2.427636 5.579151
O 0.410557 7.184513 0.934791
O 2.225783 7.184513 10.171857
O 3.498719 2.089249 14.816217
O 2.225783 2.667628 17.539341
O 3.046897 1.849258 8.302275
O 0.410557 2.667628 8.302275
O 2.352354 3.068871 12.631928
O 2.994271 4.515504 3.466154
O 4.862123 6.366144 10.171857
O 0.283987 3.068871 3.394862
O 4.914750 9.032389 15.007978
