40

Cr 5.679164 0.693170 4.344902
Cr 1.378749 5.201476 6.617010
Cr 1.378749 8.323441 2.093785
Cr 5.679164 3.815136 -0.178323
As 2.928469 2.257011 5.833310
As 4.129444 6.765317 5.128601
As 4.129444 6.759600 0.605376
As 2.928469 2.251295 1.310085
As 0.179017 2.701160 8.633339
As 6.878896 7.209466 2.328573
As 6.878896 6.315451 -2.194652
As 0.179017 1.807145 4.110114
O 5.904791 2.927243 -1.764439
O 1.153122 7.435549 3.679901
O 1.153122 6.089369 8.203126
O 5.904791 1.581063 2.758786
O 2.667136 4.024555 5.876277
O 4.390777 8.532861 5.085635
O 4.390777 4.992056 0.562410
O 2.667136 0.483750 1.353052
O 2.654891 1.487984 7.226244
O 4.403023 5.996290 3.735668
O 4.403023 7.528627 -0.787557
O 2.654891 3.020321 2.703019
O 1.718863 1.552642 4.787681
O 5.339050 6.060948 6.174231
O 5.339050 7.463969 1.651006
O 1.718863 2.955663 0.264456
O 0.135999 0.748911 2.844714
O 6.921914 5.257216 -0.929253
O 6.921914 8.267701 3.593972
O 0.135999 3.759395 7.367939
O 4.506372 2.312346 0.377644
O 2.551542 6.820652 1.537818
O 2.551542 6.704265 6.061043
O 4.506372 2.195960 4.900869
O 6.958248 3.427953 0.942196
O 0.099665 7.936259 0.973266
O 0.099665 5.588658 5.496491
O 6.958248 1.080352 5.465421
