26

Mg 3.934198 2.513875 3.882639
Mg 3.903200 5.283634 1.641400
Mg 1.293958 3.537059 2.596309
Mg 1.324042 0.774300 4.828786
Nb 3.872933 1.695923 1.308290
Nb 3.979732 0.293199 7.127033
Nb 1.370349 4.339699 5.188034
Nb 1.262960 5.783173 -0.655170
Cr 3.890225 3.962310 -2.101931
Cr 1.280727 2.097331 -1.081241
O 0.383894 1.127631 0.834279
O 2.257207 0.189353 8.075395
O 4.867342 4.970914 5.593841
O 2.995235 5.801501 -1.593181
O 2.996467 2.519537 -0.210892
O 4.762855 1.909154 7.458454
O 2.154083 3.457926 6.768605
O 0.388905 4.241925 -0.987327
O 2.368181 1.750033 2.681887
O 0.237387 5.571457 3.239104
O 1.981291 5.070752 1.113400
O 0.631877 2.743268 4.567105
O 3.238483 0.980633 5.363665
O 4.588722 3.312791 1.908959
O 4.979475 0.502416 3.217437
O 2.848430 4.278064 3.798936
