14

Mg 1.182236 3.317251 7.183436
Mg 1.815016 0.138449 2.394479
Mn 2.596613 2.331541 0.676555
Mn 0.400640 1.124160 8.901359
Mn 2.596613 2.331541 4.112402
Mn 0.400640 1.124160 5.465512
O 0.656225 1.841318 3.698138
O 2.341028 1.614383 5.879776
O 2.341028 1.614383 8.487095
O 0.656225 1.841318 1.090819
O 2.870187 3.099166 2.394479
O 0.127066 0.356535 7.183436
O 1.498626 -0.749313 0.000000
O 1.498626 -0.749313 4.788957
