12

Bi 2.998506 2.522401 0.915958
Bi 0.463205 1.237918 10.868344
Bi 2.998506 2.522401 4.976193
Bi 0.463205 1.237918 6.808110
O 0.832271 2.224257 4.821842
O 2.629439 1.536062 6.962460
O 2.629439 1.536062 10.713993
O 0.832271 2.224257 1.070309
O 3.175943 2.996605 2.946076
O 0.285768 0.763715 8.838227
O 1.730855 -0.865428 0.000000
O 1.730855 -0.865428 5.892151
