12

Mg 1.278039 1.258497 1.294981
Mg 3.805689 3.781000 -1.214208
Fe 0.001773 2.526306 -1.248361
Fe 2.530194 5.036883 1.354885
F 4.597151 2.004836 -1.944362
F 3.304186 0.702439 1.787048
F 0.485296 3.053286 2.043104
F 0.761068 0.513611 3.131908
F 1.797417 4.338200 -1.697648
F 2.058674 1.807750 -0.595161
F 4.318850 4.515811 -3.070680
F 3.003472 3.218583 0.678664
