40

Cr 1.562500 0.211535 3.404943
Cr 4.211325 10.328337 2.219251
Cr 3.735151 5.481471 7.843445
Cr 1.086326 5.058401 9.029137
Cr 1.568841 7.904904 2.546219
Cr 4.217666 2.634968 3.077975
Cr 3.728810 2.634968 8.702169
Cr 1.079984 7.904904 8.170413
Cr 4.211325 5.481471 2.219251
Cr 1.562500 5.058401 3.404943
Cr 1.086326 0.211535 9.029137
Cr 3.735151 10.328337 7.843445
O 4.963878 1.201398 8.227813
O 2.315052 9.338475 8.644769
O 0.333773 6.471334 3.020575
O 2.982599 4.068538 2.603619
O 0.333773 9.338475 3.020575
O 2.982599 1.201398 2.603619
O 4.963878 4.068538 8.227813
O 2.315052 6.471334 8.644769
O 2.478469 1.195401 8.181515
O 5.127294 9.344472 8.691067
O 2.819182 6.465337 3.066873
O 0.170357 4.074546 2.557321
O 2.819182 9.344472 3.066873
O 0.170357 1.195401 2.557321
O 2.478469 4.074546 8.181515
O 5.127294 6.465337 8.691067
O 1.010892 7.904904 6.545628
O 3.659718 2.634968 10.326954
O 4.286758 2.634968 4.702760
O 1.637933 7.904904 0.921434
O 1.136839 4.660447 10.560257
O 3.785664 5.879415 6.312325
O 4.160812 9.930394 0.688131
O 1.511987 0.609489 4.936063
O 4.160812 5.879415 0.688131
O 1.511987 4.660447 4.936063
O 1.136839 0.609489 10.560257
O 3.785664 9.930394 6.312325
