52

Mg 4.925036 0.209640 10.514876
Mg 2.345119 4.128574 10.467568
Mg 0.234798 8.466788 1.746686
Mg 2.814715 4.547854 1.793995
Mg 0.000000 0.000000 0.000000
Mg 2.579917 4.338214 6.130781
Co 0.049700 2.850354 1.006175
Co 5.110135 5.826074 11.255373
Co 2.629617 1.487860 5.124592
Co 2.530218 7.188568 7.136971
Co 2.579917 4.338214 -1.295050
Co 0.000000 0.000000 7.425832
As 2.623590 7.712815 10.344299
As 0.016104 2.724867 12.501887
As 2.596021 1.613347 8.480558
As 2.563813 7.063081 3.781005
As 2.536244 0.963613 1.917263
As 5.143730 5.951561 -0.240324
As 5.116161 3.374601 4.213518
As 0.043673 5.301827 8.048045
O 0.492800 4.883059 9.719500
O 2.869962 2.291800 6.864072
O 0.469555 1.731789 11.365632
O 0.547464 6.993826 7.602279
O 4.690279 6.944639 0.895931
O 2.087117 0.544845 3.588719
O 3.049472 2.606425 9.616813
O 4.106635 7.840411 3.488821
O 4.252617 4.469541 5.006708
O 4.667034 3.793369 2.542063
O 2.032454 2.655612 1.471498
O 1.053200 0.836017 8.772742
O 1.104550 4.155280 12.242479
O 0.907218 4.206888 7.254855
O 4.252673 0.952811 1.675332
O 1.672756 3.385403 4.455450
O 3.684467 0.182934 8.739966
O 2.110362 6.070003 2.644750
O 1.672700 8.545102 -1.466027
O 1.526718 5.174231 0.051860
O 3.487078 5.291025 7.806113
O 0.907161 7.723618 10.586231
O 2.289873 6.384628 5.397490
O 0.290045 2.046414 14.118372
O 4.055284 4.521148 0.019084
O 3.072717 8.131583 8.672844
O 4.612371 1.682602 4.659284
O 3.487135 0.131326 13.727590
O 4.869790 6.630015 -1.856809
O 3.633117 3.502197 12.209703
O 1.475367 8.493494 3.521597
O 3.127381 6.020816 10.790065
