24

Sr 1.427216 5.093470 -2.674751
Sr 4.421598 0.745187 5.687602
V 4.044420 4.962474 0.497712
V 1.804394 0.876182 2.515139
P 2.364904 2.539331 -0.293906
P 3.483910 3.299326 3.306757
P 4.956653 -0.849602 0.797067
P 0.892161 6.688259 2.215785
O 4.824143 3.010436 3.830068
O 3.667622 2.459571 -1.269414
O 3.741650 4.721426 2.253763
O 5.523082 -0.520788 3.697219
O 2.181192 3.379085 4.282266
O 5.781260 4.131517 0.299048
O 0.067554 1.707140 2.713803
O 1.663701 6.581119 3.296677
O 2.107164 1.117231 0.759088
O 4.185113 -0.742462 -0.283826
O 1.024671 2.828221 -0.817217
O 2.577040 3.721062 0.465811
O 3.271774 2.117595 2.547040
O 3.837682 5.892459 -1.222960
O 0.325732 6.359444 -0.684368
O 2.011132 -0.053802 4.235811
