37

Mg 0.000000 4.148426 3.159905
Mg 1.909850 1.804516 5.877889
Mg 5.121145 4.801433 -2.215455
Fe 2.667032 7.296312 1.704768
Fe 4.363963 -0.690364 1.957666
Fe 0.320874 1.566463 -0.650901
Fe 6.710122 5.039485 4.313335
Mo 5.485618 1.556753 3.771099
Mo 1.545378 5.049196 -0.108664
Mo 6.305945 5.951512 1.080183
Mo 2.848706 5.300131 4.960455
Mo 0.725050 0.654436 2.582252
Mo 4.182289 1.305817 -1.298021
O 6.255062 4.208102 0.842646
O 0.775934 2.397846 2.819788
O 2.000318 3.696801 4.888241
O 5.030677 2.909147 -1.225807
O 5.589986 1.364994 2.129269
O 1.441010 5.240954 1.533165
O 4.679641 6.908596 0.684024
O 2.351355 -0.302648 2.978410
O 4.540343 5.052961 -3.942061
O 2.490653 1.552987 7.604495
O 3.307338 5.501986 -1.122839
O 3.723657 1.103962 4.785273
O 1.012034 0.046920 5.747514
O 0.500783 0.269318 1.011695
O 6.530213 6.336630 2.650739
O 3.934271 0.303052 0.233454
O 3.096725 6.302896 3.428980
O 1.207524 3.337804 -0.177372
O 5.823471 3.268144 3.839807
O 6.943663 0.617019 4.331336
O 0.087332 5.988930 -0.668902
O 1.663892 6.100877 6.055283
O 5.367103 0.505071 -2.392849
O 6.018961 6.559028 -2.085079
