12

Sn 2.778382 2.284209 0.841107
Sn 0.442859 1.171656 9.618603
Sn 2.778382 2.284209 4.388748
Sn 0.442859 1.171656 6.070962
O 0.756818 2.002287 4.169502
O 2.464423 1.453578 6.290208
O 2.464423 1.453578 9.399357
O 0.756818 2.002287 1.060353
O 3.050013 3.002851 2.614927
O 0.171228 0.453014 7.844782
O 1.610621 -0.805311 0.000000
O 1.610621 -0.805311 5.229855
