38

Ti 1.594468 2.715207 1.417824
Ti 4.783404 4.966218 7.391541
Ti 1.594468 6.074226 3.350478
Ti 3.188936 0.000000 0.000000
Ti 4.783404 1.607200 5.458887
Ti 0.000000 0.000000 0.000000
P 1.594468 1.694761 4.634476
P 4.783404 5.986665 4.174889
P 1.594468 5.715157 6.773529
P 4.783404 1.966268 2.035836
P 4.783404 2.335169 8.636370
P 1.594468 5.346257 0.172995
O 4.783404 2.553398 7.087746
O 3.517823 5.756361 3.352003
O 1.594468 6.110597 5.264428
O 3.526210 1.562940 9.129030
O 4.783404 5.055346 5.427859
O 4.783404 6.671618 7.993573
O 1.594468 2.626080 3.381506
O 0.337275 6.118486 -0.319665
O 1.594468 0.165796 4.247811
O 4.783404 7.515630 4.561554
O 0.343212 4.903453 7.176670
O 1.594468 1.009808 0.815792
O 3.532148 2.777972 1.632695
O 4.783404 3.831311 9.023533
O 4.783404 1.570829 3.544937
O 2.851661 6.118486 -0.319665
O 6.048984 5.756361 3.352003
O 2.860048 1.925065 5.457362
O 2.845723 4.903453 7.176670
O 1.594468 5.128028 1.721619
O 4.783404 0.637082 1.228364
O 1.594468 7.044344 7.581001
O 6.034659 2.777972 1.632695
O 6.040597 1.562940 9.129030
O 0.328888 1.925065 5.457362
O 1.594468 3.850115 -0.214168
