44

Mg 2.041229 8.110165 6.851837
Mg 5.370211 3.717121 2.439820
Mg 5.370211 0.675922 -2.007850
Mg 2.041229 5.068966 2.404167
Mn 6.005134 0.464011 2.733898
Mn 1.406306 4.857054 6.557759
Mn 1.406306 8.322076 2.110089
Mn 6.005134 3.929033 -1.713771
As 3.230684 1.949114 4.897903
As 4.180756 6.342167 4.393754
As 4.180756 6.836964 -0.053916
As 3.230684 2.443920 0.450225
As 0.146309 2.396221 8.434685
As 7.265131 6.789264 0.856972
As 7.265131 6.389866 -3.590698
As 0.146309 1.996823 3.987016
O 6.379804 2.312964 -3.103750
O 1.031635 6.706007 3.500068
O 1.031635 6.473123 7.947737
O 6.379804 2.080080 1.343919
O 2.646914 3.445042 5.472842
O 4.764526 7.838086 3.818815
O 4.764526 5.341045 -0.628855
O 2.646914 0.948001 1.025172
O 3.500312 0.796766 5.984396
O 3.911128 5.189810 3.307260
O 3.911128 7.989321 -1.140409
O 3.500312 3.596277 1.536727
O 1.830737 1.239603 4.173621
O 5.580703 5.632646 5.118036
O 5.580703 7.546484 0.670367
O 1.830737 3.153441 -0.274049
O 7.112581 0.782392 -1.020448
O 0.298859 5.175436 1.416766
O 0.298859 8.003695 5.864435
O 7.112581 3.610651 3.427222
O 4.662722 2.337398 -0.799049
O 2.748718 6.730441 1.195367
O 2.748718 6.448689 5.643036
O 4.662722 2.055646 3.648620
O 0.433651 3.509611 3.265598
O 6.977789 7.902655 -2.869280
O 6.977789 5.276476 1.578389
O 0.433651 0.883432 7.713267
