60

Mg 7.627705 7.440830 4.213786
Mg 4.325106 6.287195 2.706349
Mg 4.062670 2.716424 7.699964
Mg 3.821568 5.619903 9.137863
Mg 1.503215 7.680870 8.187302
Mg 1.270195 2.619913 9.309071
Mg 6.457450 9.494096 2.526919
Mg 0.999396 7.013207 3.546158
Ti 6.879868 6.927353 11.127947
Ti 1.044024 1.844509 5.167331
Ti 2.905000 3.881273 3.672637
Ti 8.264287 9.197460 9.621855
Ti 5.817803 7.741338 8.182880
Ti 8.319599 3.856789 11.538857
Ti 5.768349 5.116569 5.955367
Ti 2.422208 1.455509 2.272196
Ti 7.206636 10.011241 6.678921
Ti 4.285426 3.489182 0.775499
Te 3.799972 8.545313 10.783029
Te 7.039771 4.488205 3.214057
Te 7.040375 4.489006 8.746587
Te 4.230105 8.327940 5.256599
Te 1.534330 4.755474 6.540867
Te 1.098724 4.965602 0.997449
O 3.442088 2.229109 9.683901
O 6.134859 6.254255 9.433765
O 5.389789 6.658164 6.823647
O 6.238732 3.377432 6.000165
O 4.684978 4.332863 2.462902
O 7.895544 5.573050 5.961540
O 3.210934 7.806461 3.494507
O 0.554813 0.875385 9.191925
O 4.771064 4.462014 7.821782
O 0.976697 3.664446 4.469099
O 5.221041 6.984101 1.033409
O 4.352237 9.638754 1.786223
O 7.951714 10.685236 8.370928
O 6.327235 8.564134 10.011417
O 3.464823 4.656750 10.821384
O 2.115871 5.493257 2.757222
O 0.102655 6.318849 5.221092
O 2.233178 3.138664 1.840914
O 3.900324 4.684315 5.043002
O 1.856790 8.643438 6.501709
O 6.205786 8.824501 4.515092
O 7.752867 8.377684 7.795074
O 8.048590 10.806184 2.661249
O 3.684723 7.572310 9.040954
O 8.697642 10.280186 10.982351
O 6.190198 3.405667 0.458403
O 0.148904 4.068470 9.986454
O 1.641863 5.727118 8.285070
O 0.643518 1.000368 3.482086
O 3.089800 2.198160 4.102041
O 1.891390 3.107037 7.328149
O 7.842316 5.595064 11.501305
O 6.032204 6.133285 4.074560
O 5.174828 9.227836 7.335962
O 1.429818 0.648820 0.900729
O 7.879850 8.110068 2.222618
