22

Mg 1.950644 0.586277 11.348859
Mg 1.013541 2.871163 3.782953
Co 2.562064 2.318321 0.722892
Co 1.195471 3.386531 9.678972
Co 0.402115 1.139116 14.408920
Co 1.768714 0.070909 5.452854
Co 2.562064 2.318321 6.843014
Co 0.402115 1.139116 8.288798
Co 1.768714 0.070909 2.113052
Co 1.195471 3.386531 13.018745
O 1.482090 -0.741045 7.565906
O 1.482090 -0.741045 0.000000
O 0.162129 0.459276 12.725536
O 2.802056 2.998164 2.406291
O 2.802056 2.998164 5.159615
O 0.162129 0.459276 9.972197
O 2.300139 1.576330 14.022423
O 0.664043 1.881116 1.109389
O 0.664043 1.881116 6.456517
O 2.300139 1.576330 8.675295
O 0.894392 2.533643 11.348859
O 2.069787 0.923794 3.782953
