80

O 7.275617 4.236391 -5.018371
O 7.065691 -1.358869 5.312378
O 6.372205 4.735450 -1.213826
O 5.315394 4.235975 1.164833
O 0.903412 8.131532 -1.211750
O 4.048666 -0.497810 5.527478
O 1.056801 9.076773 0.702325
O 6.372205 1.837667 -3.242061
O 5.315394 2.045321 3.056320
O 8.944196 6.447642 -1.130646
O 4.202055 -0.404323 3.304018
O 8.250711 2.261164 -1.950215
O 10.001008 4.247255 0.178775
O 0.903412 6.558380 2.038216
O 7.065691 -1.503485 3.159414
O 1.056801 5.655505 0.074810
O 8.250711 4.830687 -3.109735
O 4.048666 6.429289 -0.898977
O 4.202055 6.378160 1.275165
O 8.040784 5.752408 1.269193
O 8.040784 1.281474 2.075548
O 8.944196 0.835720 -4.152325
O 10.001008 3.327928 -5.801593
O 7.275617 2.586195 0.271977
O 2.935317 1.986925 5.138439
O 3.145243 7.582185 -5.192310
O 3.838729 1.487867 1.333894
O 4.895541 1.987342 -1.044765
O 9.307522 -1.908215 1.331818
O 6.162268 6.721126 -5.407410
O 9.154133 -2.853457 -0.582258
O 3.838729 4.385650 3.362129
O 4.895541 4.177995 -2.936252
O 1.266738 -0.224325 1.250714
O 6.008880 6.627640 -3.183950
O 1.960224 3.962152 2.070283
O 0.209927 1.976062 -0.058707
O 9.307522 -0.335064 -1.918148
O 3.145243 7.726801 -3.039346
O 9.154133 0.567811 0.045258
O 1.960224 1.392629 3.229803
O 6.162268 -0.205973 1.019044
O 6.008880 -0.154843 -1.155098
O 2.170150 0.470908 -1.149125
O 2.170150 4.941843 -1.955480
O 1.266738 5.387596 4.272393
O 0.209927 2.895388 5.921661
O 2.935317 3.637121 -0.151910
Mg 2.552734 2.759199 -1.613817
Mg 3.829100 5.943854 -3.844328
Mg 1.276367 1.981285 1.497622
Mg 3.829100 -0.072997 0.206246
Mg 1.276367 3.184655 4.022384
Mg 7.658201 -1.349363 -0.027971
Mg 7.658201 3.464117 1.733885
Mg 6.381834 0.279462 3.964396
Mg 8.934568 4.242032 -1.377554
Mg 6.381834 6.296313 -0.086179
Mg 8.934568 3.038662 -3.902316
Mg 2.552734 7.572680 0.148039
Si 7.658201 5.870857 -5.722380
Si 3.829100 1.130374 2.731009
Si 6.381834 1.482832 -1.848035
Si 1.276367 6.794765 3.259478
Si 1.276367 7.998135 -2.552953
Si 8.934568 -1.774819 2.673020
Si 7.658201 1.057377 0.852957
Si 3.829100 4.740484 1.968103
Si 2.552734 5.165940 -0.732889
Si 6.381834 5.092943 -2.610941
Si 8.934568 -0.571449 -3.139410
Si 2.552734 0.352459 5.842448
Fe 5.105467 3.111658 0.060034
Fe 5.105467 3.111658 -4.108563
Fe 5.105467 -1.701822 2.466774
Fe 5.105467 -1.701822 -1.701822
Fe 0.000000 0.000000 4.168596
Fe 0.000000 4.813481 -2.406740
Fe 0.000000 0.000000 0.000000
Fe 0.000000 4.813481 1.761856
