20

Mg 0.000000 0.000000 0.000000
Cu 3.340232 2.035790 -2.688010
Cu 0.000000 3.149200 1.152688
Cu 3.340232 -1.113411 1.613878
Sn 0.000000 0.000000 2.727288
Sn 0.000000 3.149200 -1.574600
Sn 3.340232 2.035790 0.039278
Sn 3.340232 -1.113411 -1.113410
O 5.556108 0.072339 -2.065697
O 1.124355 3.999240 2.144253
O 5.556108 2.521989 -1.169068
O 2.041109 2.304064 -1.254554
O 3.165471 0.004895 0.081376
O 0.916753 4.932764 -1.258200
O 4.639354 3.887626 -3.345457
O 3.514992 4.066684 -0.002820
O 1.124355 1.549590 1.247624
O 4.639354 1.767515 1.333109
O 5.763710 -0.861184 1.336755
O 2.041109 0.183954 3.424013
