44

Mg 0.875400 7.909397 6.710497
Mg 2.659968 3.689589 4.595114
Mg 4.410767 4.750027 0.386465
Mg 6.195336 0.530219 -1.728918
Cr 2.626078 0.572923 3.952631
Cr 4.444657 7.866693 1.028948
Cr 0.909290 4.792731 7.352981
Cr 6.161446 3.646885 -2.371402
P 1.262324 6.223516 1.505446
P 3.072977 1.925574 6.901540
P 4.797692 6.435908 3.996235
P 6.608345 2.294242 0.577508
P 2.273044 2.003708 0.985344
P 0.462391 6.145374 4.404071
P 3.997759 6.514050 -1.919961
P 5.808411 2.216100 3.476133
O 2.454033 1.586260 -0.474392
O 4.051263 5.112753 3.926376
O 0.515895 7.546671 1.435586
O 2.476674 3.283399 6.540818
O 4.616703 6.853356 5.455971
O 2.918687 0.856967 1.626170
O 4.594062 5.156217 -1.559239
O 2.548328 0.766992 6.209937
O 1.217135 2.220556 4.223207
O 4.152049 7.582649 3.355409
O 6.454054 3.362841 4.116960
O 6.470119 6.397575 3.531479
O 4.135984 2.177767 3.940889
O 5.989401 2.633548 2.016397
O 0.616681 5.076775 0.864619
O 6.554841 0.892945 3.545993
O 0.600617 2.042041 1.450100
O 4.522407 7.672624 -1.228358
O 4.752503 1.999252 -2.100825
O 2.318233 6.440364 7.082404
O 1.058694 7.503207 4.764793
O 6.083696 3.452816 -0.114095
O 0.987039 4.986800 5.095674
O 3.019473 3.326863 1.055203
O 2.934751 6.261849 1.040690
O 6.012041 0.936409 0.216786
O 5.853600 6.219060 0.758372
O 1.081335 5.806068 2.965182
