22

Mg 1.852086 4.705096 5.447614
Mg 3.706578 3.443818 2.993002
Ni 1.395230 1.468665 1.717883
Ni 4.163433 6.680237 6.722731
P 1.014790 4.515020 1.357676
P 4.543879 3.633871 7.082944
P 1.292400 1.713805 4.708735
P 4.266269 6.435105 3.731873
O 0.574238 4.453721 7.179173
O 4.984426 3.695175 1.261433
O 1.601729 5.819529 1.827545
O 3.956940 2.329375 6.613070
O 1.964132 3.428786 1.703022
O 3.594532 4.720115 6.737592
O 3.389078 5.166652 3.912458
O 2.169585 2.982261 4.528158
O 0.281363 1.406531 3.521034
O 5.277301 6.742377 4.919581
O 0.441008 1.950066 6.033900
O 3.385454 1.495561 2.573961
O 2.173215 6.653349 5.866647
O 5.117661 6.198838 2.406714
