19

Co 0.000000 0.000000 2.538595
Co 0.000000 2.931317 -1.465658
Co 3.109130 1.894940 0.036559
Co 3.109130 -1.036377 -1.036377
Cu 3.109130 1.894940 -2.502035
Cu 0.000000 2.931317 1.072936
Cu 3.109130 -1.036377 1.502218
O 5.089199 0.144713 -1.944381
O 1.129062 3.645166 2.017500
O 5.089199 2.325121 -1.146292
O 1.952795 2.254666 -1.181855
O 3.081851 0.037206 0.034922
O 0.823733 4.523566 -1.079199
O 4.265466 3.664188 -3.042952
O 3.136410 3.752673 0.038197
O 1.129062 1.464759 1.219410
O 4.265466 1.535214 1.254974
O 5.394528 -0.733686 1.152317
O 1.952795 0.125691 3.116071
