64

Mg 1.836044 5.508131 7.460319
Mg 5.508131 1.836044 7.460319
Mg 5.508131 1.836044 0.000000
Mg 1.836044 5.508131 0.000000
Cr 1.836044 1.836044 8.513448
Cr 5.508131 5.508131 13.867510
Cr 5.508131 5.508131 6.407191
Cr 1.836044 1.836044 1.053129
Si 6.696557 3.611409 9.620604
Si 4.319704 0.060678 9.620604
Si 7.283497 3.024470 12.760354
Si 3.611409 4.319704 9.620604
Si 0.060678 6.696557 9.620604
Si 0.647617 7.283497 12.760354
Si 3.024470 3.732765 12.760354
Si 3.732765 0.647617 12.760354
Si 0.647617 3.732765 5.300035
Si 3.024470 7.283497 5.300035
Si 0.060678 4.319704 2.160285
Si 3.732765 3.024470 5.300035
Si 7.283497 0.647617 5.300035
Si 6.696557 0.060678 2.160285
Si 4.319704 3.611409 2.160285
Si 3.611409 6.696557 2.160285
O 7.206463 2.476544 8.588529
O 3.809798 1.195543 8.588529
O 6.148631 3.534376 13.792430
O 2.476544 3.809798 8.588529
O 1.195543 7.206463 8.588529
O 0.137711 6.148631 13.792430
O 3.534376 4.867630 13.792430
O 4.867630 0.137711 13.792430
O 0.137711 4.867630 6.332110
O 3.534376 6.148631 6.332110
O 1.195543 3.809798 1.128209
O 4.867630 3.534376 6.332110
O 6.148631 0.137711 6.332110
O 7.206463 1.195543 1.128209
O 3.809798 2.476544 1.128209
O 0.011942 2.257482 5.594523
O 2.476544 7.206463 1.128209
O 3.684029 5.929569 9.326115
O 1.414605 3.660145 13.054843
O 5.086692 3.684029 9.326115
O 5.929569 7.332232 9.326115
O 0.011942 1.414605 13.054843
O 3.660145 2.257482 13.054843
O 2.257482 0.011942 13.054843
O 3.277507 6.949594 3.730160
O 4.066667 3.277507 3.730160
O 6.949594 0.394588 3.730160
O 0.394588 4.066667 3.730160
O 4.066667 0.394588 11.190479
O 3.277507 4.066667 11.190479
O 0.394588 6.949594 11.190479
O 6.949594 3.277507 11.190479
O 5.086692 7.332232 1.865796
O 3.684029 5.086692 1.865796
O 7.332232 5.929569 1.865796
O 1.414605 0.011942 5.594523
O 2.257482 3.660145 5.594523
O 5.929569 3.684029 1.865796
O 3.660145 1.414605 5.594523
O 7.332232 5.086692 9.326115
