28

Cr 6.088594 0.512939 -1.192852
Cr 2.309667 2.509507 3.447353
Cr 5.986942 -2.519735 0.140909
Cr 5.879928 0.798321 2.751217
P 0.199148 0.086262 4.382774
P 4.929095 -1.207575 5.561043
P 3.211675 1.141262 1.262907
P 1.950352 3.683425 -2.273837
O 4.224174 1.255830 -0.180217
O 4.631182 1.637089 3.571930
O 2.141938 2.509928 5.238792
O 5.652373 -0.697453 4.064752
O 1.465251 0.749456 1.413611
O 3.023010 2.329137 1.684135
O 0.524622 3.155284 3.401264
O 5.693261 2.078578 -2.627131
O 6.331189 -0.687933 -0.097990
O 1.003848 3.579503 -0.830213
O 1.688533 0.872106 4.124751
O 3.456720 4.018019 2.766022
O 6.463940 2.104188 1.159826
O 0.959678 4.582653 4.815908
O 0.662285 4.989384 0.778811
O 6.194255 -2.008030 -1.715332
O 5.889585 -2.615558 1.945284
O 4.503786 -0.118204 -1.792661
O 3.728965 4.073705 -2.478693
O 4.224749 0.263422 2.138472
