36

Ba 1.419151 4.703402 2.921731
Ba 4.103633 -0.508736 7.922228
Ba 4.103633 4.465187 7.079264
Ba 1.419151 9.677326 2.078767
Cr 1.030563 7.928789 6.132830
Cr 4.492222 1.239810 3.868165
Cr 1.030563 2.954865 8.868662
Cr 4.492222 6.213724 1.132333
F 0.503418 1.208968 4.497097
F 1.882253 3.346778 0.398200
F 2.562467 7.193501 6.908717
F 2.960317 1.975088 3.092278
F 4.935138 2.879998 4.531301
F 1.411933 4.556953 8.070753
F 0.039041 7.549454 7.642630
F 0.587646 1.314667 9.531798
F 1.882253 8.320702 4.602298
F 2.960317 6.949012 1.908220
F 0.503418 6.182892 0.503400
F 5.019366 7.959621 5.503897
F 5.483744 6.593059 2.642133
F 2.248762 8.789052 9.681643
F 0.587646 6.288591 5.469694
F 4.935138 7.853922 0.469197
F 5.483744 1.619135 2.358365
F 5.019366 2.985698 9.497595
F 3.274023 5.353461 4.681146
F 3.640531 5.821811 9.602795
F 3.274023 0.379537 0.319352
F 0.039041 2.575530 7.358862
F 2.248762 3.815128 5.319849
F 4.110851 -0.362288 3.070255
F 4.110851 4.611636 1.930242
F 1.411933 9.530877 6.930739
F 3.640531 0.847887 5.398697
F 2.562467 2.219587 8.092775
