12

Mg 1.262656 1.263940 1.263437
Mg 3.793664 3.789658 -1.254631
Ni 0.009446 2.536487 -1.241458
Ni 2.522558 5.051378 1.258744
F 4.695806 2.177384 -2.080319
F 3.360310 0.830405 1.646374
F 0.376303 2.896676 2.102419
F 0.815434 0.353491 3.114564
F 1.708271 4.241902 -1.618573
F 2.144754 1.698729 -0.609015
F 4.224289 4.690442 -3.120115
F 2.893872 3.343704 0.600463
