42

Mg 0.721690 0.985833 2.388491
Mg 0.720673 0.984417 7.313548
Mg 2.970006 4.057103 12.008942
Mg 0.753773 1.029664 12.234740
Mg 2.976070 4.065408 7.083275
Mg 5.254492 7.177768 21.625229
Cr 2.984098 4.076276 9.514450
Cr 2.984056 1.516186 6.954605
Cr 2.987906 4.081575 14.455451
Cr 0.027957 2.598234 5.080581
Cr 2.987756 1.504131 11.878085
Cr 3.001531 4.100437 16.930177
Cr 5.261735 7.187637 16.699691
Cr 2.995520 4.091947 19.377214
Cr 0.011776 2.593285 9.991567
Cr 2.995538 1.516338 16.801793
Cr 0.021330 2.604947 14.916325
Cr 5.258706 7.183525 26.549188
O 1.535144 2.097027 4.958202
O 1.557707 2.127823 7.228096
O 1.535239 4.489100 7.350130
O 4.297205 3.478114 9.101056
O 1.525469 2.083806 9.873792
O 1.639879 4.696056 9.934749
O 1.557761 2.127866 12.152995
O 4.475737 3.658031 11.732469
O 4.431526 6.053543 11.859472
O 1.525505 4.486665 12.276503
O 4.300036 3.471105 14.035391
O 4.475486 6.113635 14.188002
O 1.563718 2.136143 14.836266
O 1.700278 4.673009 14.948242
O 4.414207 3.679564 16.668733
O 1.562371 2.134282 17.076811
O 4.435447 6.058822 16.783693
O 1.563610 4.494835 17.194745
O 4.287369 3.497880 18.921467
O 4.414171 6.029872 19.018753
O 1.633988 4.701053 19.772705
O 4.484843 3.657488 21.579939
O 4.422630 6.041463 21.709762
O 4.484723 6.126300 24.048560
