12

Cr 2.531286 2.218285 0.715671
Cr 0.390429 1.075516 9.051376
Cr 2.531286 2.218285 4.167853
Cr 0.390429 1.075516 5.599194
O 0.697150 1.920433 3.892617
O 2.224564 1.373368 5.874429
O 2.224564 1.373368 8.776141
O 0.697150 1.920433 0.990906
O 2.701426 2.686971 2.441762
O 0.220288 0.606830 7.325285
O 1.460857 -0.730429 0.000000
O 1.460857 -0.730429 4.883523
