60

Cr 1.906579 1.722491 2.829101
Cr 6.940191 1.949370 3.718351
Cr 2.242033 1.949370 8.769899
Cr 7.275645 1.722491 7.880649
Cr 2.672036 5.208096 9.356625
Cr 6.940191 9.253390 0.639524
Cr 6.510187 5.208096 4.305077
Cr 2.242033 9.253390 5.691072
Cr 2.672036 5.994664 5.104346
Cr 6.510187 5.994664 0.052798
Cr 7.275645 9.480268 6.580322
Cr 1.906579 9.480268 1.528774
Cu 8.626754 9.064231 3.599209
Cu 0.555469 2.138528 5.810214
Cu 4.031290 5.601380 2.178938
Cu 8.626754 2.138528 0.758666
Cu 5.150934 5.601380 7.230485
Cu 0.555469 9.064231 8.650757
O 7.287132 2.069956 9.513607
O 7.268804 9.300072 2.273881
O 7.598575 0.000000 7.577322
O 7.949969 5.677603 0.650964
O 3.251352 10.429276 5.324221
O 8.505742 2.594021 7.140532
O 3.031529 3.479319 9.225227
O 1.232254 5.677603 5.702512
O 6.510114 5.538633 8.544086
O 3.251352 0.773483 9.136750
O 6.510114 5.664126 5.916885
O 3.858976 6.052168 8.521401
O 8.393113 9.433037 -0.174452
O 0.676482 2.594021 2.088985
O 6.150694 7.723440 0.184196
O 3.031529 7.723440 5.235744
O 8.505742 8.608738 7.320439
O 5.930872 0.773483 4.085202
O 1.895092 2.069956 4.462059
O 5.323247 5.150592 0.888022
O 3.324764 9.068791 2.128068
O 2.672110 5.664126 0.865337
O 0.789111 9.433037 4.877096
O 2.672110 5.538633 3.492538
O 7.949969 5.525156 3.706911
O 5.323247 6.052168 3.469853
O 1.232254 5.525156 8.758459
O 5.857460 9.068791 7.179616
O 5.857460 2.133969 7.281355
O 0.789111 1.769722 9.583875
O 0.676482 8.608738 2.268891
O 7.287132 9.132803 4.947364
O 1.583649 0.000000 2.525774
O 1.913419 9.300072 7.325429
O 5.930872 10.429276 0.272673
O 8.393113 1.769722 4.532327
O 1.895092 9.132803 -0.104184
O 7.268804 1.902688 2.083994
O 3.858976 5.150592 5.939570
O 6.150694 3.479319 4.173679
O 1.913419 1.902688 7.135542
O 3.324764 2.133969 2.229807
