52

Mg 4.995847 0.236013 10.739426
Mg 2.361918 4.120881 10.860817
Mg 0.272011 8.477775 2.039031
Mg 2.905940 4.592907 1.917639
Mg 0.000000 0.000000 0.000000
Mg 2.633929 4.356894 6.389228
Mn 0.016346 2.795043 1.127739
Mn 5.251512 5.918745 11.650717
Mn 2.650275 1.561851 5.261489
Mn 2.617583 7.151937 7.516967
Mn 2.633929 4.356894 -1.216279
Mn 0.000000 0.000000 7.605507
As 2.727070 7.709376 10.819941
As 5.246913 2.697919 12.823328
As 2.612984 1.658975 8.776915
As 2.654874 7.054813 4.001542
As 2.540788 1.004412 1.958516
As 0.020945 6.015868 -0.044871
As 5.174717 3.352482 4.430713
As 0.093141 5.361306 8.347744
O 0.576667 4.951357 9.997586
O 2.874976 2.302261 7.149108
O 0.415481 1.691468 11.684373
O 0.520817 7.083273 7.914479
O 4.852377 7.022320 1.094083
O 2.057262 0.594463 3.608357
O 3.049410 2.665426 9.915870
O 4.212105 7.797193 3.757609
O 4.282236 4.364580 5.298963
O 4.691191 3.762431 2.780871
O 2.113112 2.726379 1.525251
O 1.055752 0.916595 9.020848
O 1.083493 4.106251 12.572277
O 0.985621 4.349208 7.479494
O 4.246299 0.929482 1.705970
O 1.612370 3.427412 4.683259
O 3.717422 0.250643 9.027966
O 2.218448 6.048362 2.862587
O 1.648307 8.706102 -1.342292
O 1.578176 5.273489 0.199062
O 3.655488 5.286376 8.095198
O 1.021559 7.784306 11.072487
O 2.392882 6.411527 5.629349
O 0.241047 2.054633 14.451135
O 4.184365 4.607537 0.206180
O 3.210596 8.119325 9.170099
O 4.747041 1.630515 4.863977
O 3.619550 0.007686 14.120749
O 5.026811 6.659155 -1.672678
O 3.689681 3.440299 12.579395
O 1.550436 8.463145 3.750491
O 3.154746 5.987409 11.253205
