28

Mg 0.800581 2.073815 2.073815
Mg 4.197243 6.221445 6.221436
V 3.155923 4.413368 2.822719
V 1.841901 6.970341 3.881899
V 3.155923 2.822711 8.029529
V 1.841901 0.265730 6.970341
V 3.155923 8.029529 1.324911
V 3.155923 1.324919 4.413368
V 1.841901 3.881899 5.472540
V 1.841901 5.472540 0.265730
O 2.498904 6.221445 2.073815
O 2.498904 2.073823 6.221445
O 0.260666 5.685803 8.131926
O 0.260666 4.310972 5.685795
O 0.260666 8.131926 6.757094
O 0.260666 6.757094 4.310963
O 4.737157 2.609465 0.163334
O 4.737157 3.984288 2.609465
O 4.737157 0.163334 1.538165
O 4.737157 1.538165 3.984288
O 2.233070 0.393204 2.950657
O 2.233070 1.196964 0.393212
O 2.233070 2.950657 3.754426
O 2.233070 3.754426 1.196973
O 2.764743 4.540833 7.098287
O 2.764743 7.098287 7.902056
O 2.764743 5.344603 4.540833
O 2.764743 7.902048 5.344603
