18

Ti 4.194362 7.063008 2.204294
Ti 1.398121 1.100499 6.298741
Ge 4.322016 3.726932 2.729964
Ge 4.066708 6.357557 5.500134
Ge 1.270467 4.436575 5.773071
Ge 1.525775 1.805950 3.002901
O 2.797656 3.071214 3.444058
O 5.591067 5.629992 6.094018
O 2.794826 5.092293 5.058977
O 0.001415 2.533515 2.409017
O 1.198586 0.977962 4.515278
O 1.597655 2.882901 6.512707
O 4.393896 7.185545 3.987764
O 3.994827 5.280612 1.990328
O 4.942088 2.560354 1.726678
O 3.446636 7.291209 6.723666
O 0.650394 5.603153 6.776357
O 2.145847 0.872298 1.779370
