42

Ti 6.016958 2.899616 1.495002
Ti 6.016965 1.053130 6.000725
Ti 1.373511 6.852362 -0.378910
Ti 0.000000 3.952746 0.000000
Ti 1.373504 5.005877 4.126811
Ti 0.000000 0.000000 4.505727
P 0.882392 2.301479 2.346957
P 2.958656 7.518448 5.805975
P 2.958664 4.339791 1.300245
P 4.431813 3.565701 4.321570
P 4.431813 0.387045 -0.184156
P 6.508077 5.604014 3.274871
P 0.882400 1.651268 6.852680
P 6.508070 6.254225 -1.230861
O 5.385169 3.069813 5.306511
O 0.023273 2.280901 1.220146
O 7.121767 7.288445 -2.258779
O 6.375218 4.907833 -1.843346
O 0.023265 1.671846 5.725877
O 7.121767 4.569786 2.246957
O 7.367197 5.624592 4.401672
O 0.268703 0.617040 7.880597
O 1.015244 2.997660 7.465159
O 7.367189 6.233647 -0.104051
O 0.268710 3.335699 3.374858
O 2.400920 1.124280 6.222734
O 2.680198 6.649974 6.986047
O 1.015244 0.955086 2.959432
O 2.005300 7.022552 4.821034
O 2.871729 3.802076 4.828793
O 2.400920 2.828467 1.717016
O 4.710264 1.255519 -1.364234
O 2.005300 4.835687 0.315308
O 4.518740 7.754822 5.298752
O 2.871737 0.150671 0.323063
O 4.989557 6.781213 -0.600919
O 4.710271 2.697228 3.141498
O 4.989550 5.077026 3.904802
O 4.518740 4.103417 0.793025
O 5.385162 0.882941 0.800778
O 6.375226 6.950406 2.662386
O 2.680198 5.208265 2.480320
