14

Mg 1.227298 3.638994 8.214620
Mg 1.960174 0.289624 2.738207
Sb 2.767724 2.684048 0.880881
Sb 0.419749 1.244570 10.071946
Sb 2.767724 2.684048 4.595532
Sb 0.419749 1.244570 6.357294
O 0.690088 2.046141 4.117956
O 2.497385 1.882477 6.834871
O 2.497385 1.882477 9.594369
O 0.690088 2.046141 1.358457
O 3.143154 3.797206 2.738207
O 0.044319 0.131412 8.214620
O 1.593736 -0.796868 0.000000
O 1.593736 -0.796868 5.476413
