40

Mg 4.635673 4.876333 0.534748
Mg 1.545224 2.830433 7.763474
Mn 1.545224 2.704597 1.465478
Mn 4.635673 5.002169 6.832744
Mn 1.545224 5.944051 2.939087
Mn 3.090449 0.000000 0.000000
Mn 4.635673 1.762715 5.359136
Mn 0.000000 0.000000 0.000000
P 1.545224 1.639715 4.606792
P 4.635673 6.067051 3.691430
P 1.545224 5.659286 6.351447
P 4.635673 2.047480 1.946775
P 4.635673 2.484530 8.414259
P 1.545224 5.222236 -0.116037
O 4.635673 2.903894 6.895643
O 3.448032 5.775173 2.737665
O 1.545224 6.008873 4.885938
O 3.316076 1.679374 8.694679
O 4.635673 5.014430 4.873076
O 4.635673 6.804936 7.573636
O 1.545224 2.692336 3.425146
O 0.225627 6.027392 -0.396457
O 1.545224 0.202064 4.145382
O 4.635673 7.504702 4.152841
O 0.367634 4.732710 6.875469
O 1.545224 0.901830 0.724586
O 3.458082 2.974056 1.422753
O 4.635673 3.875332 9.006080
O 4.635673 1.697893 3.412284
O 2.864821 6.027392 -0.396457
O 5.823314 5.775173 2.737665
O 2.732865 1.931593 5.560557
O 2.722815 4.732710 6.875469
O 1.545224 4.802872 1.402580
O 4.635673 0.729977 1.181930
O 1.545224 6.976789 7.116293
O 5.813264 2.974056 1.422753
O 5.955270 1.679374 8.694679
O 0.357583 1.931593 5.560557
O 1.545224 3.831434 -0.707858
