52

P 1.647357 2.835851 13.717367
P 4.942052 5.094841 0.910630
P 4.942039 6.801328 8.224676
P 1.647357 1.129205 6.402750
P 4.942059 3.179168 10.076888
P 4.942065 0.786618 2.762638
P 1.647331 7.143939 11.865198
P 1.647364 4.751500 4.550597
W 4.942079 2.842219 12.756574
W 1.647338 5.088496 1.871159
W 1.647324 6.807886 9.185465
W 4.942065 1.122631 5.442152
W 3.294702 0.000024 0.000072
W 3.294695 3.965271 7.313743
W 0.000007 3.965286 7.313700
W -0.000007 0.000024 0.000059
O 0.388900 4.731034 5.464551
O 3.683634 3.199632 9.163030
O 6.200503 0.766480 1.848797
O 2.905736 7.164111 12.778987
O 6.200470 3.199586 9.163022
O 2.905828 4.730989 5.464572
O 0.388933 7.164109 12.778966
O 3.683615 0.766486 1.848776
O 1.647344 2.589796 7.065889
O 4.942059 5.340738 7.561640
O 4.942046 6.555146 0.246537
O 1.647357 1.375507 14.381314
O 4.942052 1.042944 13.940606
O 1.647351 6.887772 0.687157
O 1.647344 5.008508 8.002109
O 4.942052 2.922081 6.625449
O 4.942046 1.872090 10.966357
O 1.647384 6.058633 3.661348
O 1.647311 5.837194 10.975567
O 4.942079 2.093363 3.652167
O 2.902929 1.050697 5.542147
O 6.197630 6.879830 9.085520
O 3.686494 5.016743 1.771303
O 0.391760 2.913955 12.856541
O 3.686422 6.879804 9.085426
O 0.391806 1.050687 5.542082
O 2.902975 2.913933 12.856577
O 6.197604 5.016753 1.771325
O 4.942065 4.040378 14.447413
O 1.647338 0.314112 10.780815
O 1.647344 3.651198 3.464260
O 4.942085 4.279510 11.163327
O 4.942059 7.855046 7.131233
O 1.647338 0.075369 7.496398
O 1.647364 3.890140 0.180409
O 4.942059 7.616437 3.846875
