22

Mg 1.935659 0.569304 11.507016
Mg 1.034109 3.009200 3.835672
Fe 2.570176 2.415726 0.711072
Fe 1.186888 3.453782 9.783817
Fe 0.399585 1.162775 14.631616
Fe 1.782879 0.124721 5.558886
Fe 2.570176 2.415726 6.960272
Fe 0.399585 1.162775 8.382416
Fe 1.782879 0.124721 2.112458
Fe 1.186888 3.453782 13.230215
O 1.484881 -0.742440 7.671344
O 1.484881 -0.742440 0.000000
O 0.108064 0.314456 12.820749
O 2.861703 3.264047 2.521954
O 2.861703 3.264047 5.149390
O 0.108064 0.314456 10.193298
O 2.336135 1.734676 14.053442
O 0.633630 1.843834 1.289246
O 0.633630 1.843834 6.382098
O 2.336135 1.734676 8.960590
O 0.885466 2.576676 11.507016
O 2.084296 1.001825 3.835672
