52

Mo 4.910247 2.839516 12.664475
Mo 1.636753 5.128440 1.847809
Mo 1.636714 6.824134 9.104405
Mo 4.910260 1.143599 5.407386
Mo 3.273468 0.000005 0.000057
Mo 3.273526 3.983831 7.255954
Mo -0.000039 3.983834 7.255926
Mo 0.000026 -0.000008 0.000029
P 1.636753 2.838467 13.612766
P 4.910234 5.129720 0.900012
P 4.910221 6.822872 8.156231
P 1.636766 1.145212 6.354790
P 4.910241 3.185749 10.005344
P 4.910254 0.798609 2.749082
P 1.636740 7.169092 11.763463
P 1.636760 4.782096 4.506229
O 0.378658 4.761811 5.418533
O 3.652276 3.206060 9.093730
O 6.168349 0.778839 1.836682
O 2.894711 7.188843 12.675145
O 6.168211 3.206034 9.093723
O 2.894855 4.761768 5.418569
O 0.378776 7.188854 12.675109
O 3.652145 0.778882 1.836646
O 1.636740 2.605839 7.004553
O 4.910241 5.361886 7.507529
O 4.910234 6.589925 0.248664
O 1.636740 1.377928 14.263156
O 4.910247 1.043866 13.833358
O 1.636740 6.924082 0.678564
O 1.636740 5.028126 7.937185
O 4.910247 2.939631 6.574954
O 4.910227 1.873060 10.895115
O 1.636773 6.094777 3.617096
O 1.636714 5.856858 10.873683
O 4.910286 2.110788 3.638195
O 2.888485 1.059525 5.484982
O 6.162214 6.908254 9.027193
O 3.658489 5.044792 1.770048
O 0.384819 2.923246 12.741838
O 3.658221 6.908224 9.027114
O 0.385068 1.059511 5.484917
O 2.888727 2.923220 12.741888
O 6.161966 5.044798 1.770084
O 4.910254 4.073379 14.324271
O 1.636766 0.296281 10.677227
O 1.636747 3.687892 3.416562
O 4.910267 4.280184 11.095635
O 4.910247 7.877499 7.064582
O 1.636734 0.089652 7.447833
O 1.636747 3.894011 0.187564
O 4.910234 7.671579 3.834622
