52

Mn 4.672661 2.719239 12.236898
Mn 1.559945 5.012168 1.665736
Mn 1.555040 6.609037 8.603152
Mn 4.677503 1.122394 5.301049
Ni 3.115228 -0.004851 0.025615
Ni 3.117359 3.862770 6.951565
Ni 6.231801 3.855923 6.974446
Ni 6.232069 -0.012083 0.047626
P 1.553718 2.705536 13.016151
P 4.678669 5.027878 0.884439
P 4.673172 6.567613 7.814367
P 1.559490 1.160566 6.084389
P 4.672897 3.017544 9.621552
P 1.560437 4.711880 4.282630
P 1.555364 6.909912 11.218503
P 4.676936 0.820280 2.689097
O 0.286437 4.654539 5.128638
O 3.402549 3.078197 8.762453
O 5.953330 0.755556 1.846432
O 2.826323 6.961715 12.077208
O 5.946636 3.072639 8.776101
O 2.831122 4.649870 5.142247
O 0.280298 6.970467 12.064345
O 3.405728 0.772784 1.831478
O 1.557639 2.598916 6.681780
O 4.675291 5.128092 7.220447
O 4.680807 6.465461 0.281918
O 1.549904 1.268421 13.620670
O 4.667718 1.140567 13.244071
O 1.563871 6.593049 0.662089
O 1.557707 5.024246 7.607828
O 4.674854 2.704436 6.294463
O 4.674911 1.739206 10.544241
O 1.557551 5.990916 3.360655
O 1.545797 5.630701 10.298781
O 4.687600 2.099822 3.607591
O 2.784259 1.032476 5.159159
O 5.893123 6.700714 8.754458
O 3.451020 4.911016 1.809048
O 0.335051 2.831785 12.072819
O 3.448726 6.702206 8.738743
O 0.339040 1.034559 5.143548
O 2.781473 2.821274 12.092252
O 5.898016 4.900931 1.827098
O 4.674805 7.472475 3.806097
O 1.557178 0.257277 10.101237
O 1.560020 3.618697 3.153432
O 4.673427 4.110037 10.748395
O 4.673720 7.624057 6.723836
O 1.558580 0.094991 7.165723
O 1.556785 3.771338 0.227028
O 4.675895 3.963035 13.672550
