20

Mg 0.000000 0.000000 0.000000
Ti 0.000000 0.000000 2.623572
Ti 0.000000 3.029440 -1.514720
Ti 3.213206 1.958371 0.037784
Ti 3.213206 -1.071068 -1.071069
Cu 3.213206 1.958371 -2.585789
Cu 0.000000 3.029440 1.108852
Cu 3.213206 -1.071068 1.552503
O 5.299258 0.056377 -2.019547
O 1.127154 3.860366 2.095114
O 5.299258 2.469665 -1.136222
O 1.933367 2.241031 -1.166881
O 3.060521 0.042518 0.027068
O 0.806213 4.727451 -1.188244
O 4.493046 3.801094 -3.226752
O 3.365891 3.874225 0.048499
O 1.127154 1.447078 1.211789
O 4.493046 1.675711 1.242449
O 5.620200 -0.810708 1.263811
O 1.933367 0.115649 3.302319
