64

Mg 2.767666 3.682980 6.726159
Mg 0.066951 1.566900 6.726159
Mg 0.066951 6.816781 1.343773
Mg 5.334480 3.682980 14.796091
Mg 2.633765 1.566900 14.796091
Mg 5.334480 8.932861 9.413705
Mg 2.633765 6.816781 9.413705
Mg 2.767666 8.932861 1.343773
Bi 0.329466 4.019823 9.150512
Bi 2.371250 9.269704 6.989352
Bi 5.071965 6.479938 6.989352
Bi 3.030181 1.230058 9.150512
Bi 5.071965 1.230058 1.080580
Bi 0.329466 9.269704 15.059284
Bi 2.371250 4.019823 1.080580
Bi 3.030181 6.479938 15.059284
Bi 5.149622 9.040389 3.928604
Bi 0.251809 1.459372 12.211259
Bi 2.952525 3.790508 12.211259
Bi 0.251809 6.709253 11.998536
Bi 2.448906 1.459372 4.141328
Bi 2.448906 6.709253 3.928604
Bi 2.952525 9.040389 11.998536
Bi 5.149622 3.790508 4.141328
O 4.892989 3.224162 10.942295
O 1.186138 10.249458 0.684492
O 1.514577 4.999577 15.455372
O 1.360059 8.131026 2.677700
O 1.340657 2.881145 13.462163
O 4.892989 8.474043 13.267500
O 1.340657 8.131026 10.747632
O 3.209158 8.474043 5.197569
O 1.186138 4.999577 7.385440
O 0.508442 7.275600 5.197569
O 3.209158 3.224162 2.872363
O 4.317720 2.729487 8.127067
O 3.886854 0.250304 7.385440
O 4.041372 7.618617 10.747632
O 1.536556 0.048624 13.899844
O 3.886854 5.500185 0.684492
O 0.508442 2.025719 2.872363
O 4.060774 2.368736 5.392232
O 1.617005 7.770275 16.082728
O 1.514577 10.249458 8.754423
O 1.083711 7.770275 8.012797
O 3.864875 10.451137 2.240019
O 4.041372 2.368736 13.462163
O 4.237271 10.451137 10.309951
O 1.083711 2.520394 0.057135
O 1.617005 2.520394 8.127067
O 4.215293 5.500185 8.754423
O 4.215293 0.250304 15.455372
O 4.237271 5.201256 13.899844
O 3.784426 7.979367 8.012797
O 3.784426 2.729487 0.057135
O 4.317720 7.979367 16.082728
O 3.864875 5.201256 5.829912
O 4.060774 7.618617 2.677700
O 1.360059 2.881145 5.392232
O 1.536556 5.298505 10.309951
O 1.164160 5.298505 2.240019
O 2.192273 2.025719 10.942295
O 1.164160 0.048624 5.829912
O 2.192273 7.275600 13.267500
