40

Mg 4.812306 4.753463 0.652141
Mg 1.604102 2.977530 7.710337
Ti 1.604102 2.722848 1.440585
Ti 4.812306 5.008145 6.921893
Ti 1.604102 6.119707 2.985473
Ti 3.208204 0.000000 0.000000
Ti 4.812306 1.611286 5.377005
Ti 0.000000 0.000000 0.000000
P 1.604102 1.723393 4.650864
P 4.812306 6.007600 3.711614
P 1.604102 5.617873 6.412998
P 4.812306 2.113120 1.949480
P 4.812306 2.481355 8.403525
P 1.604102 5.249638 -0.041047
O 4.812306 2.852358 6.880345
O 3.593945 5.769470 2.818378
O 1.604102 5.970128 4.929055
O 3.499053 1.693335 8.721543
O 4.812306 5.073635 4.968491
O 4.812306 6.712868 7.592922
O 1.604102 2.657359 3.393987
O 0.290849 6.037658 -0.359065
O 1.604102 0.223565 4.210097
O 4.812306 7.507429 4.152381
O 0.418132 4.687046 6.884333
O 1.604102 1.018125 0.769556
O 3.626335 3.043947 1.478145
O 4.812306 3.924005 8.942026
O 4.812306 1.760865 3.433423
O 2.917355 6.037658 -0.359065
O 6.030666 5.769470 2.818378
O 2.822462 1.961523 5.544100
O 2.790072 4.687046 6.884333
O 1.604102 4.878636 1.482133
O 4.812306 0.782732 1.194531
O 1.604102 6.948261 7.167947
O 5.998276 3.043947 1.478145
O 6.125558 1.693335 8.721543
O 0.385742 1.961523 5.544100
O 1.604102 3.806989 -0.579548
