52

Mg 2.260943 8.138881 13.891783
Mg 0.726305 6.106874 9.464498
Mg 4.402607 4.959003 7.675062
Mg 2.867970 2.926996 3.247778
Fe 1.045252 2.430090 14.425660
Fe 2.021715 3.354104 8.732178
Fe 4.083661 8.635787 2.713900
Fe 2.564456 5.532939 1.401379
Fe 3.107198 7.711773 8.407383
Fe 2.948104 7.850118 5.236979
Fe 2.180809 3.215760 11.902581
Fe 0.000000 0.000000 7.168401
P 0.325845 4.992010 12.568238
P 3.990966 5.657751 10.860864
P 4.803068 6.073867 4.571322
P 0.922599 8.374277 2.277431
P 2.629086 1.892920 6.432305
P 2.499827 9.172957 10.707255
P 1.137947 5.408126 6.278696
P 4.206314 2.691600 14.862129
O 3.718934 5.049081 3.375099
O 3.791749 9.671546 15.295734
O 4.104371 9.492510 10.855370
O 4.149167 4.595612 9.902951
O 1.102993 3.842549 1.682908
O 3.375045 5.040891 11.963445
O 3.316473 3.387919 15.454223
O 4.451512 10.361046 3.954227
O 0.979745 6.470265 7.236610
O 2.940749 6.446834 9.933171
O 4.322812 7.412019 4.374432
O 2.914838 2.661807 5.235722
O 1.337164 1.394331 1.843826
O 0.361527 4.065343 8.958485
O 1.409974 6.016794 13.764459
O 0.806101 3.653858 12.765129
O 0.147872 5.529034 11.139792
O 1.812440 7.677958 1.685337
O 2.028275 2.014041 10.276414
O 2.214075 8.404070 11.903839
O 4.767386 7.000534 8.181075
O 1.668671 8.376099 9.253299
O 0.677401 0.704831 13.185334
O 1.217163 8.212660 3.835255
O 2.188163 4.619043 7.206389
O 1.024541 1.573367 6.284190
O 4.981041 5.536843 5.999768
O 3.460241 2.689778 7.886261
O 4.025919 7.223328 15.456653
O 3.911750 2.853217 13.304306
O 1.753868 6.024986 5.176115
O 3.100638 9.051836 6.863147
