20

Mg 0.000019 -0.000006 0.000004
Cu 3.126879 1.905957 -2.516385
Cu 0.000013 2.948604 1.077910
Cu 3.126892 -1.042655 1.511959
Ni -0.000013 -0.000008 2.553128
Ni -0.000006 2.948599 -1.475212
Ni 3.126898 1.905957 0.036739
Ni 3.126892 -1.042655 -1.041159
O 5.197628 0.069461 -1.933216
O 1.056131 3.742430 2.006699
O 5.197572 2.360703 -1.095855
O 1.912484 2.161265 -1.174612
O 2.967690 0.005413 0.074986
O 0.856660 4.616235 -1.175939
O 4.342100 3.642026 -3.129842
O 3.286100 3.806491 -0.001504
O 1.056187 1.451200 1.169348
O 4.341274 1.650644 1.248101
O 5.397098 -0.804344 1.249442
O 1.911665 0.169869 3.203326
