52

Bi 5.254910 3.110185 13.404796
Bi 1.751553 5.423403 1.912627
Bi 1.751517 7.378562 9.573750
Bi 5.254910 1.153610 5.742080
Bi 3.503196 0.000158 0.000796
Bi 3.503364 4.266799 7.658451
Bi 7.006280 4.266812 7.658526
Bi -0.000014 0.000137 0.000674
P 1.751637 3.026371 14.325768
P 5.254805 5.507678 0.991148
P 5.254770 7.294433 8.653624
P 1.751651 1.239275 6.664090
P 5.254833 3.329663 10.551286
P 5.254847 0.937418 2.889322
P 1.751623 7.596435 12.428054
P 1.751623 5.203738 4.765524
O 0.467637 5.113522 5.635271
O 3.971086 3.420113 9.681472
O 6.538937 0.848598 2.021788
O 3.034837 7.685960 13.296252
O 6.538594 3.420136 9.681523
O 3.035559 5.113502 5.635353
O 0.468387 7.685912 13.296201
O 3.970728 0.848593 2.021767
O 1.751581 2.697706 7.358859
O 5.254840 5.836199 7.958594
O 5.254826 6.964214 0.291803
O 1.751581 1.569554 15.024409
O 5.254847 1.168698 14.531343
O 1.751574 7.363995 0.785039
O 1.751567 5.435479 8.453291
O 5.254861 3.097376 6.864669
O 5.254882 2.017944 11.391280
O 1.751602 6.515364 3.925975
O 1.751595 6.284869 11.586777
O 5.254896 2.247764 3.730892
O 2.988314 1.174042 5.751772
O 6.491384 7.360286 9.565622
O 4.017952 5.442687 1.902172
O 0.514910 3.091579 13.414466
O 4.018064 7.360152 9.565497
O 0.515064 1.173934 5.751631
O 2.988440 3.091499 13.414622
O 6.491594 5.442676 1.902312
O 5.254840 4.423646 15.243641
O 1.751623 0.211181 11.333971
O 1.751637 4.056403 3.660903
O 5.254826 4.476947 11.656244
O 5.254728 8.375684 7.573741
O 1.751651 0.158221 7.743528
O 1.751616 4.110626 0.073029
O 5.254847 8.321905 3.981843
