20

Mg 3.922583 2.486116 5.656795
Mg 1.307528 5.066868 2.273225
Ni 3.922583 6.697653 1.701996
Ni 1.307528 0.855330 6.228025
Ge 4.105683 3.361180 2.266595
Ge 3.739482 5.932179 4.989287
Ge 1.124427 4.191803 5.663425
Ge 1.490628 1.620804 2.940733
O 3.075901 2.498347 3.502363
O 4.769264 4.654287 5.763744
O 2.154209 5.054636 4.427657
O 0.460846 2.898697 2.166276
O 0.611782 1.017216 4.281976
O 2.003273 2.821982 6.175292
O 4.618328 6.535768 3.648044
O 3.226837 4.731001 1.754728
O 4.536268 2.202094 1.094853
O 3.308897 7.032542 6.216172
O 0.693842 5.350889 6.835167
O 1.921213 0.520442 1.713849
