80

Mg 3.283027 1.385067 11.621620
Mg 2.035390 7.713147 6.983897
Mg 3.283027 5.934174 16.286656
Mg 0.623818 7.713147 16.286656
Mg 4.694598 1.385067 2.318861
Mg 2.035390 3.164040 2.318861
Mg 0.623818 3.164040 11.621620
Mg 4.694598 5.934174 6.983897
Cr 1.999714 8.926758 2.301149
Cr 3.318703 0.171456 16.304368
Cr 4.658922 0.171456 7.001610
Cr 0.659494 8.926758 11.603907
Cr 1.999714 4.377651 7.001610
Cr 3.318703 4.720563 11.603907
Cr 4.658922 4.720563 2.301149
Cr 0.659494 4.377651 16.304368
Si 2.997385 6.020834 4.247007
Si 3.796429 7.613076 9.754203
Si 4.181195 7.613076 0.451444
Si 4.980240 1.471727 14.358510
Si 0.338177 3.077380 5.055752
Si 2.321031 7.626487 13.549765
Si 1.137221 6.034245 9.754203
Si 3.796429 3.063969 18.154073
Si 4.181195 3.063969 8.851314
Si 4.980240 6.020834 13.549765
Si 2.321031 3.077380 14.358510
Si 2.997385 1.471727 5.055752
Si 1.521987 1.485138 8.851314
Si 0.338177 7.626487 4.247007
Si 1.521987 6.034245 0.451444
Si 1.137221 1.485138 18.154073
O 4.983526 4.578303 12.806308
O 1.562716 0.127912 17.377367
O 0.334890 4.519911 5.799209
O 3.781942 3.072267 1.188316
O 1.122734 1.476840 1.188316
O 4.915919 1.914901 17.657585
O 5.003736 6.069182 15.171999
O 0.314680 7.578139 5.869241
O 3.781942 7.621374 8.114443
O 5.003736 1.520075 12.736276
O 2.324318 4.519911 15.101968
O 4.195683 3.072267 10.491074
O 3.755701 8.970302 1.228150
O 2.344528 7.578139 15.171999
O 2.994098 0.029196 5.799209
O 1.562716 4.677019 10.530909
O 2.324318 9.069018 12.806308
O 0.876656 6.996172 12.961161
O 1.782552 6.996172 3.658403
O 3.061706 6.464008 0.947932
O 4.195683 7.621374 17.417201
O 2.973888 6.069182 5.869241
O 4.221924 4.421195 17.377367
O 0.876656 2.447065 14.947114
O 1.536475 1.476840 10.491074
O 2.973888 1.520075 3.433518
O 3.755701 4.421195 8.074608
O 1.122734 6.025947 8.114443
O 1.096493 4.677019 1.228150
O 3.535864 6.651149 12.961161
O 0.334890 9.069018 3.503549
O 4.441761 6.651149 3.658403
O 4.441761 2.102042 5.644356
O 4.221924 8.970302 10.530909
O 1.536475 6.025947 17.417201
O 1.096493 0.127912 8.074608
O 1.782552 2.447065 5.644356
O 0.402498 7.183313 0.947932
O 2.256710 7.183313 10.250691
O 3.535864 2.102042 14.947114
O 2.256710 2.634206 17.657585
O 3.061706 1.914901 8.354826
O 0.402498 2.634206 8.354826
O 2.344528 3.029032 12.736276
O 2.994098 4.578303 3.503549
O 4.915919 6.464008 10.250691
O 0.314680 3.029032 3.433518
O 4.983526 0.029196 15.101968
