18

Mg 2.744729 2.927150 1.986409
Mg 0.308540 4.899470 6.002499
V 2.369302 0.060433 0.390928
V 4.805476 2.549957 7.589638
V 0.197001 2.542640 3.831008
V 2.633438 0.067814 4.149872
O 3.368978 1.558246 3.462321
O 0.932735 1.051344 4.518516
O 3.689393 4.090511 0.419671
O 1.253019 3.734930 7.569232
O 1.265240 3.809432 4.516692
O 3.701462 4.017590 3.472096
O 0.894008 1.008263 7.457847
O 3.330411 1.600515 0.522879
O 0.755654 2.506685 2.224618
O 3.191818 0.102769 5.756161
O 1.824131 5.080424 1.966128
O 4.260169 2.746746 6.022456
