18

Pr 0.046059 5.421208 6.047938
Pr 2.867929 3.175304 2.056829
W 0.015344 2.807517 7.983605
W 0.016995 2.809355 4.011319
W 2.791683 0.037696 4.020654
W 2.772942 0.051277 0.043764
O 0.513834 2.768051 2.029810
O 1.122344 1.161535 7.624020
O 1.128187 1.156092 4.388267
O 1.599486 4.206831 4.326194
O 1.495320 4.063834 7.798393
O 2.448104 5.590743 2.100607
O 3.266168 0.075329 6.003457
O 3.993798 1.742098 0.419921
O 3.853880 1.614198 3.701345
O 4.334308 4.438315 0.364973
O 4.320893 4.426212 3.814960
O 5.223859 2.981068 6.070048
