60

Mg 7.874213 8.148703 4.363397
Mg 4.461794 6.661580 2.838598
Mg 4.187037 3.155530 8.174669
Mg 4.041773 6.092788 9.623958
Mg 1.559003 7.845773 8.629069
Mg 1.414992 2.672534 9.787732
Mg 6.933129 10.145195 2.671524
Mg 1.137851 7.275448 3.710241
Sn 7.154284 7.318251 11.947350
Sn 0.856889 1.773606 5.670515
Sn 2.965663 4.034543 4.086554
Sn 8.584089 9.855291 10.343865
Sn 6.220132 8.441744 8.390481
Sn 8.965284 4.455931 0.480865
Sn 5.842619 5.728749 6.265043
Sn 2.631127 1.793799 2.176245
Sn 7.653730 10.977887 6.792190
Sn 4.742958 4.052834 0.587235
Te 4.136538 8.956370 11.340231
Te 7.402009 5.091631 3.371642
Te 7.403712 5.093938 9.224675
Te 4.338561 8.873188 5.492875
Te 1.464947 4.981741 6.912372
Te 1.261976 5.063638 1.056421
O 3.658129 2.316745 9.988088
O 6.355333 6.509326 10.198539
O 5.356274 7.375516 6.750365
O 6.653925 4.209240 5.358742
O 5.231983 4.988086 2.329468
O 8.003466 6.036789 7.234426
O 3.433383 7.876527 4.056781
O 0.394840 0.953829 9.746691
O 5.207428 4.874105 8.217422
O 0.546456 3.400915 4.888957
O 5.337179 7.527637 1.305385
O 5.055434 2.426767 1.368841
O 8.450776 11.785091 8.543200
O 6.455078 9.032445 11.166220
O 3.528958 5.078945 11.164866
O 2.166924 6.059972 2.493407
O 0.263110 6.410994 5.244856
O 2.421333 3.569948 1.304249
O 3.711905 5.148713 5.724175
O 2.070345 8.858351 7.086741
O 6.263735 9.362529 4.481558
O 8.351849 9.263227 7.571310
O 8.336087 11.707865 2.720690
O 3.491717 7.854006 9.908766
O 0.244604 6.562680 11.497458
O 6.804741 4.149413 11.207438
O 9.168081 7.996113 11.215119
O 2.110017 6.084424 8.342945
O 0.368794 0.840473 3.926063
O 3.178458 2.257422 4.955487
O 1.943817 3.512497 7.974714
O 8.152413 5.974431 1.392093
O 6.471531 6.585952 4.312530
O 5.639620 10.298077 7.524411
O 1.888199 8.788444 0.829880
O 8.542226 8.930788 2.552930
