14

Bi 1.921210 4.592523 2.347150
Bi 3.174837 1.357566 2.095280
Bi 7.017256 1.357566 2.095280
Bi 8.270884 4.592523 2.347150
O 0.000000 5.523236 2.419620
O 1.277283 2.423305 2.178257
O 2.176094 5.188323 0.403960
O 2.919953 0.761754 0.059314
O 3.818763 3.526784 2.264174
O 5.096047 0.426853 2.022811
O 6.373330 3.526784 2.264174
O 8.914810 2.423305 2.178257
O 7.272140 0.761754 0.059314
O 8.016000 5.188323 0.403960
