20

Mg 0.000045 0.000015 0.000007
V 0.000038 0.000029 2.610781
V 0.000006 2.997366 -1.488926
V 3.187124 1.922251 0.048726
V 3.187194 -1.075068 -1.073135
Cu 3.187143 1.922257 2.659544
Cu 0.000025 2.997311 1.121874
Cu 3.187188 -1.074976 1.537653
O 5.262296 0.027708 -2.007469
O 1.112112 3.816776 2.104938
O 5.238851 2.437477 -1.118779
O 1.873187 2.208772 -1.147628
O 3.056654 0.051626 0.020741
O 0.793087 4.682556 -1.135051
O 4.437892 3.754554 -3.203367
O 3.317716 3.792926 0.076673
O 1.135582 1.406993 1.216253
O 4.501164 1.635762 1.245091
O 5.581270 -0.838012 1.232500
O 1.936427 0.089942 3.300860
