14

Mg 6.401124 2.786770 2.793496
Mg 0.933925 3.704352 4.676131
W 1.321200 1.986717 2.403631
W 4.051107 2.198631 5.122410
W 4.051107 5.193622 3.416111
W 4.051107 5.193622 6.207590
O 2.592839 3.119937 3.708812
O 2.592839 3.119937 6.073479
O 2.592839 5.657000 4.628070
O 5.326410 4.396143 5.013245
O 2.240269 5.688731 7.078625
O 5.780553 4.600646 7.520968
O 5.780553 7.069126 6.114631
O 5.780553 7.069126 8.415377
