34

Ti 1.222761 1.679036 1.973119
Ti 5.609726 7.703001 9.052182
Cr 3.137820 4.308701 5.063370
Cr 7.524785 10.332666 12.142433
P 0.312975 3.698676 6.609215
P 4.132995 7.713932 4.291410
P 6.515406 3.639015 6.787291
P 2.128441 8.392100 7.368211
P 4.699940 4.253212 9.906755
P 8.519959 8.430276 7.492013
O 1.232667 4.451592 3.892665
O 2.429510 2.311907 5.201978
O 0.568937 2.464432 7.492490
O 4.456753 4.385017 4.006536
O 0.069788 4.845010 7.159370
O 1.923517 4.335138 6.166032
O 2.535903 8.181999 4.112336
O 3.902942 6.308417 5.029300
O 1.821134 0.959520 3.531903
O 5.012037 4.239337 6.294300
O 0.625072 7.417366 7.818808
O 3.211820 3.220259 2.209448
O 5.619632 8.740780 4.952842
O 8.028067 4.640729 6.359882
O 3.641102 7.808095 7.890777
O 6.816475 3.586691 8.068030
O 4.955901 5.680084 9.195803
O 6.310482 3.800056 10.116343
O 6.922867 7.822946 7.957191
O 0.020136 2.758877 2.412611
O 4.407101 7.592787 10.204614
O 8.289907 9.689436 6.633544
O 6.208099 9.714712 8.974737
O 7.598784 7.703051 10.211800
