42

Mg 0.730760 0.998079 2.402928
Mg 0.771917 1.054449 7.371773
Mg 2.985788 4.077505 7.114400
Mg 0.772578 1.054832 12.352330
Mg 5.257604 7.180216 16.799169
Mg 5.256425 7.178149 21.777676
Ti 5.952168 5.603243 14.044272
Ti 3.034743 4.143885 9.668309
Ti 0.005983 2.603883 10.073534
Ti 3.035399 6.670767 12.198836
Ti 2.964792 4.047058 12.093908
Ti 3.007470 4.106901 14.574669
Ti 0.076005 2.628475 15.107158
Ti 3.004277 1.507509 11.971065
Ti 2.992162 1.561451 16.952557
Ti 3.013747 4.116347 17.066958
Ti 2.994862 4.089922 19.485806
Ti 5.292110 7.226974 26.747630
O 1.525447 2.082926 4.973518
O 1.565352 2.137536 7.278883
O 1.525447 4.501874 7.394070
O 4.319102 3.479514 9.161863
O 1.663809 4.668695 10.060880
O 1.537466 2.100011 9.902583
O 4.431820 3.655739 11.812391
O 4.524745 6.179068 11.909537
O 1.535391 4.565161 12.369864
O 1.563007 2.134708 12.263885
O 4.432121 6.052975 14.211725
O 4.387345 3.522299 14.175170
O 1.655710 4.688050 15.013432
O 1.549040 2.115421 14.878918
O 4.459148 3.662846 16.787778
O 4.458667 6.088372 16.893657
O 1.539113 2.101750 17.239688
O 1.549028 4.578776 17.345806
O 4.458204 6.087808 19.214091
O 4.394458 3.537702 19.146608
O 1.604001 4.685716 19.932220
O 4.458300 6.088366 21.874515
O 4.485964 3.631187 21.756024
O 4.486956 6.127661 24.255189
