10

Mg 5.506761 -0.528985 -5.871303
Mg 5.541247 -0.544539 -3.757871
Cr 5.537645 1.361025 -6.213981
W 5.532978 1.352563 -4.070407
O 1.442324 -0.443230 -0.086145
O 4.035277 1.438813 -3.735450
O 2.174010 0.939903 -3.053013
O 1.859322 2.665018 -1.125280
O 3.341762 -1.509231 -2.652007
O 3.681631 0.100718 -1.284237
