36

Mg 5.178376 4.820561 1.621630
Mg 2.165671 -0.429951 1.108729
Fe 3.671697 2.193229 1.365505
Fe 3.670536 5.644686 -4.473909
P 3.743078 0.893693 4.566323
P 0.068899 4.843517 4.148820
P 3.594851 3.498513 -1.828898
P 7.278020 -0.447216 -1.415177
P 5.645647 3.108951 -4.418937
P 1.539575 4.635396 1.446692
P 1.695242 1.281746 7.156580
P 5.815856 -0.241552 1.283387
O 2.348241 1.357630 5.617066
O 7.054285 0.821791 1.238730
O 4.989475 3.037789 -2.881189
O 0.294801 3.575301 1.493661
O 5.284636 1.669820 4.478765
O 0.523185 5.250330 2.577690
O 2.053844 2.720073 -1.737610
O 6.845459 -0.853857 0.154645
O 3.377557 1.262924 3.305573
O 1.419118 5.067479 4.589399
O 3.966505 3.130931 -0.570945
O 5.914177 -0.668987 -1.839757
O 4.013223 -0.497026 5.119825
O 5.909138 2.986571 1.290256
O 3.320608 4.888295 -2.381250
O 1.433102 1.408190 1.432144
O 4.684392 4.013193 3.715970
O 2.926576 3.983551 1.828582
O 2.660867 0.378493 -0.982427
O 4.428268 0.405263 0.897896
O 0.020785 5.827221 -1.517323
O 1.829925 5.628449 0.196841
O 7.320178 -1.439441 4.260043
O 5.526476 -1.233087 2.533936
