26

Sr 1.381679 5.314116 -3.034608
Sr 4.180277 0.646843 5.997759
Mg 5.504239 1.688576 2.325708
Mg 0.057716 4.272383 0.637443
V 3.575081 5.282448 0.432601
V 1.986875 0.678511 2.530550
P 2.179519 2.558174 -0.303028
P 3.382437 3.402785 3.266179
P 4.676915 -0.654068 0.947794
P 0.885041 6.615027 2.015356
O 4.542711 3.014197 4.027923
O 3.669606 2.644807 -1.171298
O 3.710976 4.903970 2.366586
O 5.354167 -0.107210 3.748365
O 1.892350 3.316152 4.134448
O 0.021981 5.206520 2.090506
O 5.539975 0.754439 0.872644
O 1.441214 6.633082 3.185994
O 1.850980 1.056990 0.596565
O 4.120742 -0.672123 -0.222843
O 1.019245 2.946762 -1.064773
O 2.048591 3.692916 0.510211
O 3.513365 2.268043 2.452939
O 3.458802 6.001969 -1.573417
O 0.207789 6.068169 -0.785214
O 2.103153 -0.041010 4.536568
