12

Sb 2.861588 2.501297 0.847932
Sb 0.440441 1.210379 10.227020
Sb 2.861588 2.501297 4.689544
Sb 0.440441 1.210379 6.385407
O 0.812032 2.231554 4.522224
O 2.489998 1.480122 6.552728
O 2.489998 1.480122 10.059700
O 0.812032 2.231554 1.015252
O 3.015400 2.923990 2.768738
O 0.286629 0.787686 8.306214
O 1.651015 -0.825508 0.000000
O 1.651015 -0.825508 5.537476
