56

Mg 4.865233 0.059668 12.982748
Mg 4.865220 3.979039 4.942975
Mg 1.621749 4.098899 11.135607
Mg 1.621749 8.018326 3.096510
Sn 4.865252 3.044514 14.226382
Sn 1.621755 5.033569 1.853519
Sn 1.621736 7.083729 9.891972
Sn 4.865258 0.994330 6.185871
Sn 3.243127 8.078261 0.000066
Sn 3.243834 4.039094 8.039516
Sn 6.486637 4.038909 8.039283
Sn 0.000331 8.078244 0.000138
P 1.621761 3.172299 15.025429
P 4.865252 4.906834 1.054874
P 4.865252 7.211555 9.092814
P 1.621761 0.867635 6.984482
P 4.865252 3.216206 11.383964
P 4.865239 0.822566 3.343194
P 1.621736 7.255453 12.734375
P 1.621755 4.861797 4.696194
O 0.315333 4.670513 5.519697
O 3.558719 3.407405 10.560658
O 6.171655 0.631221 2.519673
O 2.928307 7.446559 13.557668
O 6.171823 3.407393 10.560686
O 2.928184 4.670541 5.519677
O 0.315158 7.446563 13.557655
O 3.558810 0.631242 2.519693
O 1.621716 2.191154 7.774974
O 4.865220 5.889272 8.300361
O 4.865271 6.230288 0.264252
O 1.621749 1.849992 15.817852
O 4.865220 1.112356 14.733916
O 1.621742 6.965565 1.346161
O 1.621820 5.151563 9.384433
O 4.865310 2.926302 6.693297
O 4.865239 1.843344 12.125337
O 1.621742 6.234610 3.954677
O 1.621761 5.882631 11.992876
O 4.865252 2.195411 4.084661
O 2.826163 0.755565 6.010577
O 6.069627 7.322612 10.066813
O 3.660838 4.794792 2.028778
O 0.417367 3.283408 14.051430
O 3.660857 7.322672 10.066799
O 0.417373 0.755577 6.010547
O 2.826124 3.283396 14.051428
O 6.069653 4.794764 2.028776
O 4.865239 3.693514 0.086117
O 1.621749 0.229243 11.549231
O 1.621742 3.809553 3.511065
O 4.865258 4.268458 12.569077
O 4.865271 0.347576 8.125201
O 1.621749 7.732882 7.953365
O 1.621768 4.386783 15.993028
O 4.865252 7.848800 4.528386
