16

Mg 1.017241 -0.315733 3.058165
Mg 1.899267 6.632803 6.804169
Mg 0.895541 5.413839 1.587105
Mg 2.018878 0.903223 8.274779
V 1.065393 1.856731 5.348811
V 0.144735 2.857337 2.362116
V 2.766645 3.462336 7.498746
V 1.850412 4.460754 4.513891
O 0.414308 6.279768 4.935464
O 0.928031 2.907876 7.109079
O 1.980222 3.413333 2.750593
O 2.500927 0.037169 4.927069
O 0.527083 0.562532 6.553424
O 1.548557 1.051049 2.117809
O 2.389659 5.754270 3.309280
O 1.363577 5.268293 7.742701
