88

Mg 0.367960 9.659560 7.368549
Mg 1.487141 9.540777 13.388984
Mg 5.686547 4.983275 5.879941
Mg 5.686547 -0.676735 1.629102
Mg 1.487141 3.880767 9.138145
Mg 0.367960 3.999550 0.140494
Mg 6.805728 -0.795517 7.649537
Mg 6.805728 4.864492 14.877591
Co 4.702252 -0.610867 10.144011
Co 2.471436 3.814900 2.634968
Co 2.471436 9.474909 4.874075
Co 4.702252 5.049143 12.383117
Co 7.143107 0.463613 11.254688
Co 0.030581 2.740419 3.745646
Co 0.030581 8.400429 3.763397
Co 7.143107 6.123623 11.272440
Bi 6.267752 -1.760137 13.551825
Bi 2.970459 6.492635 14.927992
Bi 2.970459 0.832626 7.599136
Bi 4.203229 2.371407 0.090093
Bi 3.743066 7.865975 10.755637
Bi 3.430623 6.658077 3.246595
Bi 3.430623 0.998067 4.262448
Bi 3.743066 2.205965 11.771491
Bi 4.203229 8.031417 7.418949
Bi 6.274402 3.337900 2.970247
Bi 0.899286 -0.133867 10.479290
Bi 0.899286 5.526142 12.047839
Bi 0.905936 4.964170 6.042782
Bi 6.267752 3.899873 8.975303
Bi 0.905936 10.624180 1.466246
Bi 6.274402 8.997910 4.538796
O 6.005790 8.989565 0.661246
O 1.167898 5.534487 8.170289
O 1.167898 -0.125522 14.356839
O 6.005790 3.329555 6.847796
O 6.978614 7.740754 12.272990
O 0.195074 6.783298 4.763947
O 0.195074 1.123288 2.745096
O 6.978614 2.080744 10.254138
O 0.590187 1.387954 12.147529
O 6.583502 1.816078 4.638486
O 6.583502 7.476088 2.870557
O 0.590187 7.047964 10.379600
O 4.174376 8.431088 4.732544
O 2.999312 6.092964 12.241587
O 2.999312 0.432954 10.285541
O 4.174376 2.771079 2.776499
O 0.025696 1.724241 5.335716
O 7.147992 1.479792 12.844758
O 7.147992 7.139801 9.682370
O 0.025696 7.384251 2.173327
O 0.435651 9.706966 5.211891
O 2.254547 8.510337 6.512022
O 6.738037 4.817087 12.720934
O 0.435651 4.046956 2.297151
O 5.729044 6.311926 7.248088
O 1.444645 8.212127 14.757131
O 1.444645 2.552117 7.769997
O 5.729044 0.651916 0.260954
O 5.947820 8.954781 6.870474
O 1.225869 5.569271 14.379516
O 1.225869 -0.090739 8.147612
O 5.947820 3.294771 0.638569
O 3.307235 1.293064 13.596428
O 3.866453 1.910969 6.087386
O 3.866453 7.570979 1.421657
O 3.307235 6.953073 8.930700
O 5.292216 0.455822 11.474418
O 1.881472 2.748211 3.965375
O 1.881472 8.408220 3.543667
O 5.292216 6.115832 11.052710
O 4.583815 3.848972 10.894600
O 2.589874 -0.644939 3.385557
O 2.589874 5.015071 4.123486
O 4.583815 9.508981 11.632528
O 1.862318 3.212652 10.976268
O 5.311370 -0.008619 3.467225
O 5.311370 5.651391 4.041817
O 1.862318 8.872661 11.550860
O 4.029827 3.683469 13.368754
O 3.143862 -0.479436 5.859712
O 3.143862 5.180574 1.649331
O 4.029827 9.343479 9.158374
O 2.254547 2.850327 0.997021
O 4.919142 0.353706 8.506063
O 4.919142 6.013716 14.021065
O 6.738037 -0.842923 9.806194
