64

Mg 1.834387 5.503160 7.510273
Mg 5.503160 1.834387 7.510273
Mg 5.503160 1.834387 0.000000
Mg 1.834387 5.503160 0.000000
Ti 1.834387 1.834387 8.566142
Ti 5.503160 5.503160 13.964676
Ti 5.503160 5.503160 6.454403
Ti 1.834387 1.834387 1.055869
Si 6.672170 3.597878 9.702626
Si 4.334149 0.070895 9.702626
Si 7.266651 3.003397 12.828192
Si 3.597878 4.334149 9.702626
Si 0.070895 6.672170 9.702626
Si 0.665376 7.266651 12.828192
Si 3.003397 3.739669 12.828192
Si 3.739669 0.665376 12.828192
Si 0.665376 3.739669 5.317919
Si 3.003397 7.266651 5.317919
Si 0.070895 4.334149 2.192354
Si 3.739669 3.003397 5.317919
Si 7.266651 0.665376 5.317919
Si 6.672170 0.070895 2.192354
Si 4.334149 3.597878 2.192354
Si 3.597878 6.672170 2.192354
O 7.187853 2.481624 8.641981
O 3.818466 1.187149 8.641981
O 6.150397 3.519080 13.888837
O 2.481624 3.818466 8.641981
O 1.187149 7.187853 8.641981
O 0.149693 6.150397 13.888837
O 3.519080 4.855922 13.888837
O 4.855922 0.149693 13.888837
O 0.149693 4.855922 6.378565
O 3.519080 6.150397 6.378565
O 1.187149 3.818466 1.131708
O 4.855922 3.519080 6.378565
O 6.150397 0.149693 6.378565
O 7.187853 1.187149 1.131708
O 3.818466 2.481624 1.131708
O 0.001497 2.278286 5.612307
O 2.481624 7.187853 1.131708
O 3.670270 5.947059 9.408239
O 1.390487 3.667276 13.122579
O 5.059260 3.670270 9.408239
O 5.947059 7.336049 9.408239
O 0.001497 1.390487 13.122579
O 3.667276 2.278286 13.122579
O 2.278286 0.001497 13.122579
O 3.231852 6.900625 3.755136
O 4.105695 3.231852 3.755136
O 6.900625 0.436929 3.755136
O 0.436929 4.105695 3.755136
O 4.105695 0.436929 11.265409
O 3.231852 4.105695 11.265409
O 0.436929 6.900625 11.265409
O 6.900625 3.231852 11.265409
O 5.059260 7.336049 1.897966
O 3.670270 5.059260 1.897966
O 7.336049 5.947059 1.897966
O 1.390487 0.001497 5.612307
O 2.278286 3.667276 5.612307
O 5.947059 3.670270 1.897966
O 3.667276 1.390487 5.612307
O 7.336049 5.059260 9.408239
