16

Mg 2.673148 2.457174 6.142309
Mg 2.688965 5.796606 3.596275
Cr 2.652750 4.147507 7.251442
Cr 2.646081 7.489243 6.362476
Si 2.650631 2.475201 4.438176
Si 2.637857 5.812089 5.223374
O 1.510032 1.206530 3.249405
O 3.816285 3.748461 4.610855
O 3.759194 7.093684 6.385223
O 1.475548 4.547985 5.057822
O 4.597896 5.412315 6.432586
O 0.711522 6.191466 2.789050
O 0.704524 2.875185 3.245906
O 4.582515 2.084357 6.875094
O 2.637496 5.813893 2.376395
O 2.659588 2.476641 7.295225
