34

Fe 2.628955 7.308615 0.944224
Fe 4.356983 -0.966145 1.963446
Fe 0.334291 1.624179 -0.782153
Fe 6.651647 4.718291 3.689823
W 6.169555 5.765083 0.465102
W 0.816384 0.577387 2.442568
W 1.475339 5.210152 -0.729395
W 5.510599 1.132318 3.637064
W 4.174287 0.919408 -1.237717
W 2.811652 5.423062 4.145387
O 0.475952 0.326608 0.914102
O 6.509986 6.015862 1.993568
O 3.968167 -0.067675 0.379236
O 3.017772 6.410145 2.528434
O 1.124610 3.394168 -0.584965
O 5.861328 2.948302 3.492635
O 6.817794 0.108717 4.394068
O 0.168145 6.233753 -1.486399
O 1.635436 6.322056 5.258566
O 5.350502 0.020414 -2.350896
O 6.136553 -1.823116 1.234592
O 0.849385 8.165586 1.673078
O 3.730910 0.670748 4.679298
O 3.255028 5.671722 -1.771628
O 2.337202 1.169778 -1.535564
O 4.648737 5.172692 4.443234
O 2.373577 -0.373896 2.994850
O 4.612361 6.716366 -0.087181
O 1.571724 5.654522 0.748637
O 5.414214 0.687948 2.159033
O 5.035527 2.510357 -1.373812
O 1.950411 3.832113 4.281482
O 1.260165 2.311461 2.168992
O 5.725773 4.031009 0.738677
