40

Mg 4.755672 4.788227 0.645682
Mg 1.585224 2.857645 7.523209
Fe 1.585224 2.702724 1.438386
Fe 4.755672 4.943148 6.730505
Fe 1.585224 5.986358 2.904725
Fe 3.170448 0.000000 0.000000
Fe 4.755672 1.659514 5.264166
Fe 0.000000 0.000000 0.000000
P 1.585224 1.651975 4.581592
P 4.755672 5.993897 3.587299
P 1.585224 5.555605 6.265620
P 4.755672 2.090267 1.903271
P 4.755672 2.444378 8.294593
P 1.585224 5.201494 -0.125702
O 4.755672 2.837750 6.784409
O 3.553374 5.722369 2.671621
O 1.585224 5.950614 4.800389
O 3.437907 1.641936 8.598815
O 4.755672 4.999016 4.813477
O 4.755672 6.714413 7.429265
O 1.585224 2.646856 3.355415
O 0.267459 6.003936 -0.429924
O 1.585224 0.195283 4.101288
O 4.755672 7.450589 4.067603
O 0.398449 4.642482 6.741146
O 1.585224 0.931458 0.739626
O 3.568897 3.003390 1.427745
O 4.755672 3.871663 8.843678
O 4.755672 1.695258 3.368503
O 2.902989 6.003936 -0.429924
O 5.957969 5.722369 2.671621
O 2.787521 1.923503 5.497270
O 2.771999 4.642482 6.741146
O 1.585224 4.808122 1.384482
O 4.755672 0.756291 1.129408
O 1.585224 6.889580 7.039483
O 5.942446 3.003390 1.427745
O 6.073437 1.641936 8.598815
O 0.382927 1.923503 5.497270
O 1.585224 3.774209 -0.674787
