42

Mg 0.771773 1.083517 2.622030
Mg 0.729251 1.111844 7.736083
Mg 3.123119 4.420432 13.016898
Mg 0.827175 1.069583 12.844558
Mg 3.165857 4.370385 7.908603
Mg 5.559954 7.751571 23.407683
W 3.142406 4.430134 10.425513
W 3.121788 1.599840 7.284054
W 3.147591 4.455735 15.546333
W 6.329693 6.021887 15.182369
W 3.126472 1.638361 12.408760
W 3.190392 4.393221 18.114548
W 5.534709 7.851194 18.321522
W 3.235589 4.370537 20.715374
W 0.004811 2.887734 10.861345
W 3.232515 7.193692 23.885818
W 0.046275 2.781393 15.976744
W 5.637348 7.786252 28.635704
O 1.542222 2.279801 5.335006
O 1.627324 2.250410 7.766911
O 1.662672 4.974560 8.331847
O 4.605497 3.791773 9.893726
O 1.545321 2.327800 10.474319
O 1.732955 5.032593 10.972076
O 1.633371 2.260468 12.892557
O 4.546020 3.921223 12.568117
O 4.587547 6.661066 13.136059
O 1.639164 5.022820 13.473874
O 4.583884 3.833974 15.000784
O 4.804805 6.558003 15.559712
O 1.599436 2.184893 15.558199
O 1.710277 5.051647 16.136483
O 4.678892 3.879385 17.652075
O 1.720469 2.173866 18.028328
O 4.597853 6.684762 18.264248
O 1.702488 4.918934 18.606298
O 4.666552 3.733626 20.126742
O 4.747204 6.566388 20.667273
O 1.823292 4.968810 21.247537
O 4.619003 3.843946 22.829137
O 4.724793 6.571650 23.393599
O 4.903604 6.526623 25.872740
