34

Cr 5.918979 5.698009 0.396982
Cr 0.779290 0.648063 2.328152
Cr 1.458180 5.085044 -0.664390
Cr 5.240090 1.261028 3.389524
Cr 4.000079 0.976088 -1.237115
Cr 2.698190 5.369985 3.962249
Fe 2.521570 7.200755 0.944611
Fe 4.176699 -0.854682 1.780523
Fe 0.336045 1.661629 -0.740649
Fe 6.362224 4.684444 3.465783
O 0.498512 0.302118 0.940432
O 6.199757 6.043954 1.784702
O 3.821698 0.018607 0.218076
O 2.876572 6.327466 2.507058
O 1.205374 3.398919 -0.488440
O 5.492896 2.947154 3.213574
O 6.559113 0.449402 3.990673
O 0.139157 5.896671 -1.265539
O 1.602012 6.153609 5.029661
O 5.096258 0.192463 -2.304527
O 5.977522 -1.695048 0.968661
O 0.720747 8.041121 1.756473
O 3.640844 0.754988 4.381544
O 3.057425 5.591085 -1.656410
O 2.308612 1.157780 -1.512818
O 4.389657 5.188292 4.237952
O 2.231066 -0.226927 2.797423
O 4.467203 6.573000 -0.072289
O 1.490057 5.523275 0.704325
O 5.208213 0.822797 2.020809
O 4.711087 2.439388 -1.273115
O 1.987182 3.906684 3.998249
O 1.111042 2.245071 2.119790
O 5.587227 4.101002 0.605344
