36

Mn 2.878340 3.936780 9.265879
Mn 2.874893 1.458193 6.793194
Mn 2.878101 3.933509 14.166055
Mn 0.048981 2.529040 5.032421
Mn 2.873518 1.472185 11.686314
Mn 2.917648 3.995971 16.647511
Mn 5.102795 6.970903 16.319204
Mn 2.937861 4.009238 19.092181
Mn 0.014494 2.505375 9.891691
Mn 2.939247 1.498534 16.579226
Mn 0.032861 2.557177 14.751166
Mn 5.125360 6.981410 26.123139
O 1.441232 1.974374 4.896284
O 1.517634 2.079146 7.093518
O 1.423278 4.263617 7.188947
O 4.065747 3.286901 8.821369
O 1.429387 1.972001 9.760827
O 1.655084 4.591982 9.769279
O 1.521996 2.088208 11.977642
O 4.367108 3.612270 11.470509
O 4.286256 5.855552 11.555166
O 1.436334 4.258294 12.062175
O 4.118816 3.286285 13.775582
O 4.353534 5.945512 13.810515
O 1.557781 2.126342 14.717790
O 1.719205 4.564698 14.763102
O 4.269089 3.629060 16.369989
O 1.575589 2.150298 16.871166
O 4.285895 5.858402 16.439955
O 1.557047 4.344916 16.941952
O 4.118496 3.411607 18.550657
O 4.263149 5.836745 18.580019
O 1.677778 4.646598 19.532819
O 4.413689 3.648326 21.245851
O 4.289651 5.854717 21.339554
O 4.417451 6.024649 23.630108
