20

Mg 0.000000 0.000000 0.000000
Fe 0.000000 0.000000 2.615343
Fe 0.000000 3.019938 -1.509969
Fe 3.203128 1.952228 0.037665
Fe 3.203128 -1.067709 -1.067709
Cu 3.203128 1.952228 -2.577678
Cu 0.000000 3.019938 1.105374
Cu 3.203128 -1.067709 1.547634
O 5.334701 0.095052 -1.967479
O 1.071555 3.809405 2.042809
O 5.334701 2.388356 -1.128066
O 1.986920 2.221239 -1.229158
O 3.058462 -0.009215 0.097690
O 0.915371 4.724480 -1.197612
O 4.419337 3.703744 -3.186619
O 3.347794 3.913672 -0.022360
O 1.071555 1.516100 1.203396
O 4.419337 1.683218 1.304488
O 5.490886 -0.820023 1.272943
O 1.986920 0.200713 3.261949
