36

Ni 5.348357 5.953703 -0.378599
Ni 2.707384 1.466770 6.126249
Ni 0.022137 3.020164 7.465979
Ni 2.663110 7.507097 0.961131
Ge 4.629157 3.069350 -1.772004
Ge 3.426585 7.556283 7.519653
Ge 0.741338 5.904517 8.859383
Ge 1.943909 1.417584 -0.432274
Ge 0.577527 3.122340 4.463583
Ge 2.107720 7.609274 3.963527
Ge 4.792967 5.851527 2.623797
Ge 3.262774 1.364593 3.123853
O 1.821194 2.388350 3.054388
O 0.864053 6.875283 5.372722
O 3.549301 6.585517 4.032992
O 4.506441 2.098584 1.714658
O 1.052112 2.721469 0.585997
O 1.633135 7.208402 7.841113
O 4.318382 6.252398 6.501392
O 3.737359 1.765465 -0.753743
O 3.319798 8.680332 2.404056
O 4.735943 4.193398 3.343593
O 2.050696 0.293535 4.683323
O 0.634551 4.780469 3.743786
O 1.567336 8.848260 0.389426
O 1.117911 4.361326 8.037683
O 3.803158 0.125607 6.697953
O 4.252583 4.612541 -0.950304
O 4.038880 3.035043 6.494789
O 4.016861 7.521976 -0.747139
O 1.331614 5.938824 0.592591
O 1.353633 1.451891 7.834519
O 1.430189 2.803301 5.800147
O 1.255058 7.290235 2.626963
O 3.940305 6.170566 1.287232
O 4.115437 1.683632 4.460417
