28

Cr 4.633710 5.662615 7.206246
Cr 1.274434 -0.189496 3.877796
Cr 4.228506 2.547063 1.664225
Cr 1.679638 2.926056 9.419818
Bi 1.025571 0.945403 0.990326
Bi 4.882573 4.527717 10.093716
Bi 3.979643 3.681962 4.551695
Bi 1.928501 1.791157 6.532347
O 3.250295 1.548313 1.070452
O 0.540058 2.615829 10.604934
O 3.197257 3.911389 2.233612
O 3.995016 2.267793 6.109724
O 5.111154 1.947941 3.028149
O 2.157081 -0.788618 2.513872
O 3.494124 5.352391 6.021129
O 2.414021 0.120728 5.062913
O 1.913128 3.205326 4.974319
O 5.611922 -1.847305 6.612474
O 0.796991 3.525178 8.055893
O 2.657850 3.924806 10.013590
O 0.296223 7.320424 4.471569
O 3.751063 6.261737 8.570170
O 4.867200 5.941886 0.567702
O 1.040944 -0.468766 10.516340
O 2.710887 1.561730 8.850430
O 5.368093 2.857287 0.479108
O 5.664959 4.298289 7.775633
O 0.243185 1.174830 3.308409
