22

Mg 1.910548 0.569627 11.776353
Mg 1.025789 3.023041 3.925451
V 2.540742 2.426854 0.738754
V 1.169220 3.445729 10.036106
V 0.395589 1.165812 14.963050
V 1.767117 0.146939 5.665713
V 2.540742 2.426854 7.112148
V 0.395589 1.165812 8.589656
V 1.767117 0.146939 2.185189
V 1.169220 3.445729 13.516600
O 1.468165 -0.734083 7.850902
O 1.468165 -0.734083 0.000000
O 0.108744 0.320464 13.134794
O 2.827593 3.272204 2.567025
O 2.827593 3.272204 5.283877
O 0.108744 0.320464 10.417927
O 2.282697 1.666374 14.454845
O 0.653637 1.926301 1.246959
O 0.653637 1.926301 6.603943
O 2.282697 1.666374 9.097861
O 0.855508 2.521216 11.776353
O 2.080823 1.071450 3.925451
