40

Mg 2.442872 4.479017 1.262373
Mg 0.302625 9.079563 7.122040
Mg 3.048122 4.722073 5.908379
Mg 5.188369 0.121528 0.048712
V 5.252152 6.047803 0.029241
V 2.984339 1.447258 5.927851
V 0.238842 3.153287 7.141511
V 2.506655 7.753833 1.242901
Ge 4.536478 3.109168 -1.448473
Ge 3.700013 7.709713 7.405565
Ge 0.954516 6.091923 8.619225
Ge 1.790981 1.491377 -0.234813
Ge 1.351691 3.155680 3.794691
Ge 1.393806 7.756225 4.589721
Ge 4.139304 6.045411 3.376061
Ge 4.097188 1.444866 2.581031
O 2.780508 2.648939 2.469423
O 5.455984 7.249484 3.487669
O 2.710486 6.552152 4.701329
O 0.035011 1.951607 3.683083
O 0.941453 2.975982 0.636735
O 1.804044 7.576528 7.747688
O 4.549541 6.225108 6.534027
O 3.686950 1.624563 -0.576926
O 3.858719 9.107148 1.887964
O 4.377772 4.506593 4.069128
O 1.632275 0.093952 5.282788
O 1.113222 4.694488 3.101624
O 1.227528 0.170073 0.822989
O 1.517969 4.770618 7.561424
O 4.263466 9.031018 6.347764
O 3.973025 4.430472 -0.390672
O 4.133467 3.143019 6.558406
O 4.103025 7.743564 -0.601315
O 1.357527 6.058072 0.612346
O 1.387970 1.457526 7.772067
O 1.808975 3.158569 5.350894
O 0.936522 7.759114 3.033519
O 3.682019 6.042522 1.819858
O 4.554472 1.441977 4.137233
