28

Sb 6.066466 0.949354 -1.402882
Sb 2.546430 2.615208 3.661345
Sb 6.051286 -2.124409 0.105129
Sb 6.035217 0.991611 2.765210
P 0.204422 0.090732 4.616542
P 4.923362 -1.023755 5.806867
P 3.193495 1.315544 1.328554
P 1.948170 3.867635 -2.317381
O 4.125306 1.537187 -0.141932
O 4.628181 1.952959 3.792824
O 2.163541 2.673020 5.580175
O 5.669459 -0.550972 4.303668
O 1.538693 0.758902 1.514433
O 2.925665 2.527467 1.751552
O 0.469598 3.299358 3.552917
O 5.722508 2.330819 -2.762866
O 6.407477 -0.453183 -0.067349
O 1.058945 3.627838 -0.833026
O 1.694373 0.871382 4.375000
O 3.413757 4.358226 2.950835
O 6.407623 2.529793 1.215254
O 0.935430 4.771254 5.189328
O 0.689568 5.103734 0.972422
O 6.153431 -1.837441 -1.853473
O 5.913307 -2.397790 2.067100
O 4.466748 0.071024 -1.920149
O 3.623848 4.397126 -2.526207
O 4.190603 0.444456 2.204804
