72

Si 3.185725 7.178114 4.460902
Si 3.896156 8.880403 10.446689
Si 3.819695 8.880874 0.516491
Si 4.526681 1.819866 15.400710
Si 0.615576 3.532688 5.468968
Si 1.956172 8.888552 14.394167
Si 1.324120 7.186154 10.447505
Si 3.894983 3.523428 19.346576
Si 3.818101 3.523054 9.414054
Si 4.526567 7.176864 14.393584
Si 1.956203 3.531341 15.400955
Si 3.185957 1.820860 5.468465
Si 1.246086 1.828805 9.414890
Si 0.615293 8.889824 4.461127
Si 1.247603 7.186111 0.516532
Si 1.322927 1.828783 19.346716
W 2.241208 0.516352 2.504963
W 2.901219 10.192984 17.357788
W 4.810853 10.190758 7.422652
W 0.331425 0.518718 12.439185
W 2.241470 5.873927 7.425293
W 2.900936 4.835259 12.436663
W 4.811177 4.834039 2.506334
W 0.331358 5.875758 17.356397
O 4.178600 5.836798 13.534022
O 1.651842 0.487583 18.487922
O 0.963009 4.872689 6.328749
O 3.926829 3.798921 1.094992
O 1.354999 1.551953 1.095017
O 4.961429 2.333758 18.961606
O 4.448107 6.865245 15.998569
O 0.693826 9.201421 6.066020
O 3.927590 9.154856 8.834423
O 4.448611 1.508697 13.795658
O 1.609614 4.872408 16.260586
O 3.786111 3.799080 11.026117
O 3.491361 10.222042 1.375583
O 1.876991 9.199918 15.999005
O 3.532011 0.480211 6.328942
O 1.653148 5.844697 11.305879
O 1.609526 10.229363 13.534107
O 0.894385 7.693908 14.022242
O 1.676319 7.693484 4.089308
O 2.751645 7.693983 0.901489
O 3.787530 9.157951 18.768250
O 3.265070 6.866630 6.065584
O 4.225282 4.863715 18.487880
O 0.894334 2.336975 15.773796
O 1.214630 1.554491 11.027195
O 3.265718 1.508743 3.863905
O 3.489633 4.864629 8.555620
O 1.355940 6.910160 8.835422
O 0.917818 5.845664 1.375188
O 3.465835 8.373664 14.022326
O 0.962762 10.230254 3.601912
O 4.247769 8.372308 4.088359
O 4.247836 3.015418 5.840092
O 4.226727 10.220989 11.304725
O 1.215530 6.910748 18.768117
O 0.915931 0.488005 8.557073
O 1.676360 2.335962 5.840008
O 0.180982 8.375471 0.901860
O 2.391985 8.373121 10.832440
O 3.465825 3.016442 15.772569
O 2.390766 3.015932 18.961838
O 2.750056 2.336398 9.028841
O 0.179352 3.017994 9.029530
O 1.877089 3.842214 13.796015
O 3.531810 5.837058 3.600993
O 4.962668 7.690882 10.831791
O 0.694520 3.844927 3.864182
O 4.178595 0.479512 16.259845
