52

Mg 2.254068 8.064425 13.513685
Mg 0.726237 6.070328 9.189931
Mg 4.370712 4.907810 7.506416
Mg 2.832603 2.917552 3.172436
Co 1.044221 2.419495 14.211352
Co 2.015593 3.332861 8.579425
Co 4.042414 8.562144 2.477791
Co 2.539945 5.494364 1.252100
Co 3.082272 7.647343 8.110957
Co 2.827759 7.737885 4.926859
Co 2.256314 3.241774 11.759017
Co 0.009343 0.007611 7.097564
P 0.357990 4.915717 12.306558
P 3.957126 5.629871 10.619040
P 4.727969 6.064919 4.385371
P 0.913188 8.321149 1.975633
P 2.610741 1.827434 6.361136
P 2.489604 9.155080 10.331405
P 1.137470 5.350307 6.073328
P 4.170896 2.658002 14.715246
O 3.615545 5.025020 3.227728
O 3.783387 9.564815 14.877661
O 4.111197 9.480008 10.547331
O 4.077464 4.547015 9.680120
O 1.042930 3.847315 1.460232
O 3.364916 5.034089 11.746775
O 3.243277 3.337145 15.250672
O 4.410337 10.264440 3.589994
O 1.016263 6.434010 7.010925
O 2.915812 6.431953 9.690040
O 4.263108 7.405653 4.192641
O 2.923870 2.638899 5.186590
O 1.300472 1.413576 1.810044
O 0.391911 4.040639 8.697332
O 1.468838 5.958256 13.462314
O 0.824671 3.575817 12.500229
O 0.120948 5.450999 10.857042
O 1.842596 7.640390 1.443942
O 1.987604 2.054259 10.168023
O 2.167503 8.340906 11.500906
O 4.704164 6.937297 7.997937
O 1.706840 8.388951 8.859623
O 0.674835 0.713755 13.098133
O 1.174314 8.153362 3.531789
O 2.180847 4.549553 7.000480
O 0.991613 1.505625 6.155445
O 4.966810 5.528895 5.834649
O 3.400769 2.597726 7.830154
O 4.042323 7.133347 15.230149
O 3.905637 2.827024 13.159115
O 1.724932 5.945645 4.942209
O 3.108212 8.925999 6.521510
