72

Cr 2.235637 0.474272 2.333104
Cr 2.865672 10.238489 16.088716
Cr 4.787656 10.235593 6.874782
Cr 0.316137 0.476899 11.549356
Cr 2.235372 5.835274 6.876611
Cr 2.866529 4.878011 11.546038
Cr 4.784667 4.881215 2.332553
Cr 0.316224 5.835672 16.091737
Si 3.188552 7.160216 4.118654
Si 3.926040 8.893999 9.692958
Si 3.726635 8.894743 0.481492
Si 4.461874 1.802227 14.299154
Si 0.638308 3.555030 5.091589
Si 1.912155 8.911918 13.334836
Si 1.375368 7.177422 9.695728
Si 3.925066 3.536159 17.939936
Si 3.725253 3.536346 8.725061
Si 4.462154 7.159232 13.330730
Si 1.911589 3.555118 14.303537
Si 3.188557 1.800735 5.088716
Si 1.174519 1.820691 8.728476
Si 0.638410 8.912452 4.121876
Si 1.175626 7.178670 0.484539
Si 1.374389 1.818982 17.940991
O 4.097503 5.823511 12.458444
O 1.702956 0.501123 17.041971
O 1.003194 4.890708 5.964335
O 3.939649 3.871616 1.123095
O 1.389533 1.484647 1.124569
O 4.962338 2.320762 17.590178
O 4.418231 6.784929 14.930942
O 0.683853 9.287590 5.721968
O 3.940904 9.226959 8.084239
O 4.418751 1.426735 12.699150
O 1.548009 4.891501 15.175985
O 3.710603 3.869523 10.333618
O 3.399557 10.212463 1.381082
O 1.867885 9.285789 14.934951
O 3.553733 0.464534 5.960633
O 1.705007 5.859016 10.591907
O 1.547407 10.248516 12.464466
O 0.861942 7.707905 12.989403
O 1.687980 7.707477 3.773396
O 2.688129 7.681133 0.830283
O 3.711914 9.231510 17.299076
O 3.232817 6.786002 5.718568
O 4.255531 4.853516 17.041434
O 0.862049 2.350450 14.650632
O 1.159405 1.486177 10.336606
O 3.233087 1.427679 3.487625
O 3.396981 4.855245 7.829433
O 1.389334 6.844117 8.086951
O 0.846018 5.860991 1.381639
O 3.413064 8.365332 12.986644
O 0.999955 10.248882 3.249099
O 4.238428 8.364122 3.770360
O 4.238005 3.006603 5.432898
O 4.257189 10.211721 10.589308
O 1.160563 6.844971 17.301344
O 0.845457 0.502357 7.832087
O 1.687598 2.348908 5.436577
O 0.137946 8.393167 0.833965
O 2.413374 8.391922 10.042064
O 3.412390 3.007438 14.646933
O 2.412752 3.033321 17.592164
O 2.686568 2.323121 8.378597
O 0.136339 3.035134 8.382279
O 1.867518 3.928131 12.702867
O 3.551122 5.824487 3.245194
O 4.964123 7.678988 10.038437
O 0.682690 3.930350 3.491451
O 4.096815 0.466388 15.170719
