52

Ti 4.755236 2.769488 12.266711
Ti 1.585081 5.057896 1.773265
Ti 1.585024 6.684254 8.794207
Ti 4.755249 1.143051 5.245614
Ti 3.169598 7.827267 -0.004433
Ti 3.169915 3.913856 7.020107
Ti 6.339981 3.913542 7.019870
Ti 6.339874 0.000280 14.044270
P 1.585094 2.769379 13.189389
P 4.755198 5.058294 0.850264
P 4.755186 6.683760 7.871755
P 1.585087 1.143694 6.168165
P 4.755243 3.070129 9.694037
P 4.755236 0.844468 2.672920
P 1.585094 6.983064 11.366845
P 1.585094 4.757630 4.346009
O 0.336447 4.616898 5.263614
O 3.506602 3.210728 8.776230
O 6.003871 0.704112 1.755581
O 2.833741 7.123435 12.284288
O 6.003877 3.210775 8.776292
O 2.833728 4.616851 5.263648
O 0.336466 7.123366 12.284296
O 3.506608 0.704199 1.755505
O 1.585037 2.617172 6.794171
O 4.755173 5.210282 7.245763
O 4.755141 6.531208 0.222354
O 1.585005 1.296449 13.817327
O 4.755547 1.049566 13.375273
O 1.585404 6.778232 0.664493
O 1.585246 4.963644 7.687720
O 4.755395 2.863880 6.352214
O 4.755236 1.765805 10.529354
O 1.585075 6.061852 3.510524
O 1.585068 5.679240 10.531363
O 4.755230 2.148260 3.508514
O 2.834337 1.082858 5.304583
O 6.004403 6.744767 8.735371
O 3.505962 4.998155 1.714087
O 0.335901 2.829621 12.325560
O 3.505993 6.744745 8.735295
O 0.335882 1.082757 5.304465
O 2.834330 2.829526 12.325706
O 6.004454 4.998217 1.714135
O 4.755236 4.034627 13.772263
O 1.585056 0.219038 10.236301
O 1.585087 3.694794 3.210786
O 4.755211 4.132918 10.829120
O 4.755205 7.706330 6.747572
O 1.585075 0.121100 7.292179
O 1.585056 3.792944 0.267628
O 4.755198 7.608439 3.803507
