24

Mg 0.635634 1.839607 2.789585
Mg 2.345315 1.742621 11.565290
Fe 1.490475 -0.744994 8.461983
Fe 1.933235 0.540080 -0.015755
Fe 1.047714 3.042148 14.370631
Fe 2.229768 1.398276 5.757991
Fe 0.751181 2.183952 8.596884
Fe 2.788869 3.023646 -0.005365
Fe 0.192080 0.558581 14.360241
Fe 2.942715 3.473538 2.986874
Fe 0.038234 0.108689 11.368002
O 0.000000 0.000000 0.000000
O 2.541462 2.301802 2.062033
O 0.439487 1.280426 12.292842
O 0.855893 2.484512 -0.352018
O 2.125056 1.097715 14.706893
O 1.760918 0.039654 2.011831
O 1.220031 3.542573 12.343045
O 1.892268 0.426843 4.603239
O 1.088681 3.155384 9.751636
O 1.124059 3.260819 4.717281
O 1.856890 0.321408 9.637594
O 0.419425 1.216719 7.093187
O 2.561524 2.365509 7.261688
