42

Mg 0.726824 0.993048 2.399076
Mg 0.748447 1.022595 7.315853
Mg 2.993181 4.088595 7.130609
Mg 0.755794 1.032662 12.234185
Mg 5.287321 7.222428 16.778246
Mg 5.273050 7.202971 21.698356
Fe 0.032037 2.615329 5.099469
Fe 3.001353 4.099941 9.553389
Fe 0.009510 2.616862 9.991319
Fe 3.001510 1.528714 6.982168
Fe 3.023507 4.130234 12.046531
Fe 3.016365 4.120354 14.501359
Fe 0.020490 2.613496 14.925042
Fe 3.016287 1.516584 11.897732
Fe 3.006283 1.520605 16.818050
Fe 3.024983 4.132189 16.965446
Fe 3.006319 4.106563 19.403676
Fe 5.285639 7.220079 26.615662
O 1.533675 2.095099 4.962644
O 1.555340 2.124569 7.248585
O 1.533380 4.523115 7.390940
O 4.337599 3.497008 9.168840
O 1.707625 4.710680 10.050291
O 1.563946 2.136361 9.904046
O 4.453821 3.705806 11.791432
O 4.498761 6.145472 11.925316
O 1.563940 4.537566 12.304909
O 1.565652 2.138847 12.167380
O 4.453797 6.083899 14.169770
O 4.336623 3.522875 14.062820
O 1.684591 4.704183 14.949469
O 1.571739 2.146833 14.830120
O 4.459528 3.688709 16.708807
O 4.463288 6.096875 16.846188
O 1.563488 2.135693 17.086062
O 1.571467 4.539770 17.222656
O 4.459455 6.091723 19.111737
O 4.334821 3.528378 18.974568
O 1.627635 4.710976 19.797809
O 4.447547 6.075216 21.766211
O 4.500490 3.659727 21.619259
O 4.500315 6.147335 24.106569
