28

Bi 4.166747 6.853368 6.271513
Bi 1.369678 -0.008125 4.232021
Bi 4.137891 3.414496 1.019746
Bi 1.398534 3.430747 9.483787
Bi 0.691815 0.869031 1.159128
Bi 4.844610 5.976213 9.344406
Bi 3.460028 4.291652 4.092639
Bi 2.076398 2.553591 6.410895
O 2.319652 2.348962 0.686049
O 5.219648 1.604940 0.146776
O 2.842777 4.825779 2.161186
O 3.834600 3.686777 6.075779
O 4.888404 3.031608 2.953079
O 2.120191 -0.391013 2.298688
O 2.451435 6.125060 5.104990
O 3.084990 0.720183 5.398543
O 1.701825 3.158466 4.427754
O 0.448561 1.073660 5.937816
O 0.648022 3.813635 7.550455
O 3.216774 4.496281 9.817485
O 5.087864 5.771584 4.565718
O 3.416235 7.236257 8.204846
O 4.470038 6.581088 0.824013
O 1.066388 0.264155 9.679521
O 2.693648 2.019465 8.342347
O 0.316778 5.240303 10.356757
O 5.461861 5.442086 7.412953
O 0.074565 1.403157 3.090581
