16

W 2.676593 0.014747 7.560493
W 0.010178 2.722705 0.150539
W 5.342853 2.719028 4.002507
W 2.663908 0.016122 3.703435
O 5.032428 2.737658 5.814858
O 2.354322 5.373029 1.891230
O 2.984597 0.036085 5.747614
O 0.319112 2.670324 1.963296
O 3.840356 1.508967 3.622810
O 1.159770 1.181236 4.075788
O 4.177498 4.214583 0.224304
O 1.512141 3.888052 7.489521
O 3.868409 1.493688 0.219365
O 1.187304 1.197917 7.483966
O 1.485157 3.903157 4.085648
O 4.149535 4.198989 3.632807
