88

Mg 0.287973 8.108516 8.059877
Mg 2.054002 9.164984 13.844748
Mg 4.978830 4.483727 6.134204
Mg 4.978830 -1.057983 1.576310
Mg 2.054002 3.623274 9.286838
Mg 0.287973 2.566807 15.071709
Mg 6.744859 -0.001515 7.361180
Mg 6.744859 5.540194 0.349349
Co 4.812469 -0.947043 9.765369
Co 2.220364 3.512335 2.054840
Co 2.220364 9.054045 5.655688
Co 4.812469 4.594666 13.366217
Co 6.991317 -0.323332 11.972415
Co 0.041508 2.888627 4.261887
Co 0.041508 8.430337 3.448642
Co 6.991317 5.218377 11.159170
Sb 5.694836 8.273718 14.051621
Sb 3.071020 6.429823 0.748723
Sb 3.071020 0.888113 6.961805
Sb 3.961812 1.677179 14.672334
Sb 3.488193 7.148497 11.552916
Sb 3.544639 6.500213 3.842388
Sb 3.544639 0.958504 3.868141
Sb 3.488193 1.606788 11.578669
Sb 3.961812 7.218888 8.459252
Sb 5.932370 2.653249 1.775673
Sb 1.100462 -0.087957 9.486202
Sb 1.100462 5.453753 13.645384
Sb 1.337996 5.374992 6.341092
Sb 5.694836 2.732009 9.079965
Sb 1.337996 -0.166717 1.369436
Sb 5.932370 8.194958 5.934856
O 4.798473 8.605782 0.267756
O 2.234359 5.042929 7.978284
O 2.234359 -0.498781 15.153301
O 4.798473 3.064073 7.442773
O 6.965753 6.652706 14.109450
O 0.067079 6.996004 6.398921
O 0.067079 1.454295 1.311607
O 6.965753 1.110997 9.022136
O 6.763369 -1.521061 13.508877
O 0.269463 4.086353 5.798348
O 0.269463 9.628062 1.912180
O 6.763369 4.020649 9.622709
O 4.233814 8.049454 5.008420
O 2.799018 5.599257 12.718949
O 2.799018 0.057548 10.412637
O 4.233814 2.507744 2.702108
O 6.656154 -1.295513 5.828975
O 0.376678 3.860805 13.539503
O 0.376678 9.402514 9.592083
O 6.656154 4.246196 1.881554
O 0.249356 9.790963 5.247616
O 2.348460 7.939304 7.426041
O 6.783476 3.857747 12.958145
O 0.249356 4.249254 2.462912
O 5.247351 5.892602 7.519369
O 1.785481 7.756108 15.229898
O 1.785481 2.214399 7.901688
O 5.247351 0.350893 0.191159
O 5.265088 8.444745 7.770069
O 1.767745 5.203966 0.059541
O 1.767745 -0.337755 7.650988
O 5.265088 2.903035 15.361516
O 3.150406 0.682501 13.252733
O 3.882426 1.882791 5.542205
O 3.882426 7.424500 2.168324
O 3.150406 6.224210 9.878853
O 5.203135 0.405361 11.140079
O 1.829697 2.159931 3.429551
O 1.829697 7.701640 4.280978
O 5.203135 5.947070 11.991507
O 4.033519 2.860909 10.152962
O 2.999313 -0.295617 2.442433
O 2.999313 5.246092 5.268095
O 4.033519 8.402618 12.978624
O 1.750331 2.760248 11.154899
O 5.282501 -0.194956 3.444370
O 5.282501 5.346753 4.266158
O 1.750331 8.301958 11.976687
O 4.149069 2.787811 13.044256
O 2.883764 -0.222519 5.333727
O 2.883764 5.319190 2.376801
O 4.149069 8.329520 10.087330
O 2.348460 2.397595 0.284488
O 4.684373 0.167697 7.995016
O 4.684373 5.709406 15.136569
O 6.783476 -1.683962 10.173441
