16

Mg 2.674866 2.514919 6.062892
Mg 2.667256 5.904695 3.515821
Cr 2.644832 4.229694 7.211567
Cr 2.646894 7.634526 6.351511
P 2.640995 2.532265 4.368117
P 2.637619 5.925880 5.149267
O 1.602995 1.345079 3.290162
O 3.695600 3.726335 4.418331
O 3.677777 7.120966 6.222426
O 1.573263 4.742156 5.093406
O 4.464899 5.529397 6.167394
O 0.834766 6.309996 2.960034
O 0.822471 2.922118 3.363948
O 4.457787 2.147520 6.564117
O 2.629855 5.930751 2.337071
O 2.655670 2.529088 7.184388
