52

Mg 0.708174 1.442133 0.581968
Mg 5.874405 7.271190 11.328330
Mg 5.874405 5.798795 5.178873
Mg 0.708174 2.914528 6.731425
Cu 5.004017 1.562700 10.417620
Cu 2.494712 0.517502 7.531362
Cu 4.087867 8.195822 4.378936
Cu 1.578562 7.150624 1.492678
Cu 5.004017 2.793962 4.268164
Cu 2.494712 3.839160 1.381905
Cu 1.578562 5.919361 7.642134
Cu 4.087867 4.874163 10.528393
Sb 0.640992 3.949305 10.324263
Sb 0.640992 0.407357 4.174806
Sb 4.002122 0.749869 1.421030
Sb 5.941587 8.305967 7.735492
Sb 2.580456 7.963455 10.489268
Sb 2.580456 5.106530 4.339811
Sb 4.002122 3.606793 7.570487
Sb 5.941587 4.764018 1.586035
O 0.217140 2.142789 4.887769
O 4.312135 0.195597 6.998610
O 1.233562 5.007225 5.764300
O 5.349017 0.650563 -0.003459
O 0.217140 2.213873 11.037226
O 6.365439 6.570534 7.022529
O 0.598218 0.943679 7.496562
O 3.388514 7.678024 1.624398
O 3.388514 5.391961 7.773855
O 1.956658 7.615366 8.673522
O 4.625920 3.258705 9.386233
O 3.194065 1.035300 10.285900
O 5.984361 7.769644 4.413736
O 5.773738 4.694007 3.475649
O 2.679899 2.394360 6.970225
O 2.679899 1.962301 0.820768
O 0.808841 0.337345 2.285193
O 3.194065 3.321362 4.136443
O 0.808841 4.019317 8.434649
O 5.349017 3.706099 6.145998
O 4.312135 4.161065 0.849154
O 4.625920 1.097957 3.236776
O 6.365439 6.499451 0.873072
O 0.598218 3.412983 1.347105
O 1.233562 8.062761 11.913757
O 3.902679 6.751022 11.089530
O 2.270443 8.517727 4.911688
O 2.270443 4.552258 11.061144
O 5.984361 5.300341 10.563193
O 3.902679 6.318963 4.940073
O 1.956658 5.454619 2.524065
O 5.773738 8.375978 9.625106
