13

Ba 0.000000 0.000000 0.000000
Bi 2.171551 2.675466 5.596977
Bi 4.343108 -0.290936 5.596977
Bi 2.171551 2.675466 2.075875
Bi 4.343108 -0.290936 2.075875
O 2.140183 0.783361 5.657470
O 4.374477 -2.187238 5.657470
O 6.514659 0.531078 5.657470
O 4.374477 1.601169 2.015382
O 0.000000 1.853453 2.015382
O 2.140183 4.571769 2.015382
O 2.171551 2.675466 0.000000
O 4.343108 -0.290936 0.000000
