30

Mg 3.965470 -1.493891 2.796622
Mg 2.113028 0.980746 -1.546887
Sb 6.664869 1.480696 -1.764164
Sb 2.751839 2.889990 2.935288
Sb 6.396199 -1.978432 -0.485093
Sb 6.725385 1.399855 2.278411
P 0.204739 0.317682 4.786723
P 4.829018 -0.870428 5.070004
P 3.223967 1.273726 0.768042
P 2.304571 4.181429 -2.227478
O 4.474209 1.713904 -0.558953
O 4.914431 2.346864 3.008999
O 2.196447 2.839064 -2.266997
O 5.923582 -0.222282 3.716865
O 1.676756 0.939053 0.400192
O 2.860466 2.467019 1.266729
O 0.666516 3.709660 3.269498
O 6.297026 2.856848 -3.151763
O 6.840059 -0.225541 -0.700023
O 1.959839 4.404884 -0.858048
O 1.741954 1.171281 4.073100
O 3.707862 4.894609 1.439272
O 0.286069 -0.028030 6.227706
O 1.101691 4.985131 -2.941472
O 0.515186 5.768630 0.992442
O 5.978844 -1.698754 5.822838
O 6.070643 -2.336391 2.416044
O 3.987810 0.031311 5.804502
O 3.997465 4.827060 -2.914956
O 3.818497 0.257493 1.743656
