13

Ba 0.000000 0.000000 0.000000
Sb 2.093954 2.579863 5.149000
Sb 4.187914 -0.280539 5.149000
Sb 2.093954 2.579863 1.974587
Sb 4.187914 -0.280539 1.974587
O 2.163067 0.791738 5.222715
O 4.118801 -2.059400 5.222715
O 0.000000 3.566986 5.222715
O 4.118801 1.507586 1.900872
O 6.281868 -1.267662 1.900872
O 2.163067 4.358724 1.900872
O 2.093954 2.579863 0.000000
O 4.187914 -0.280539 0.000000
