14

Mg 5.976761 2.955375 2.960201
Mg 0.715122 3.612020 4.520194
Cr 1.604239 2.061009 2.415423
Cr 3.792806 2.486166 5.138320
Cr 3.792806 5.119225 3.546821
Cr 3.792806 5.119225 6.025807
O 2.370840 3.130319 3.677613
O 2.370840 3.130319 5.994682
O 2.370840 5.591398 4.507133
O 5.097369 4.508375 5.066184
O 2.443321 5.698385 6.951064
O 5.159521 4.653412 7.503447
O 5.159521 7.054234 6.052319
O 5.159521 7.054234 8.312656
