44

Mg 3.663669 0.000000 -1.509994
Mg 3.663669 3.961252 3.037081
Cr 1.304120 6.835267 4.046727
Cr 6.023219 2.874015 6.574510
Cr 6.023219 1.087237 2.027435
Cr 1.304120 5.048489 -0.500348
Cr 0.000000 0.000000 0.000000
Cr 0.000000 3.961252 4.547075
P 4.195473 0.420875 4.648831
P 3.131866 4.382127 5.972406
P 3.131866 7.501629 1.425331
P 4.195473 3.540377 0.101756
P 6.388721 6.256346 3.655808
P 0.938617 2.295094 6.965429
P 0.938617 1.666158 2.418354
P 6.388721 5.627410 -0.891267
O 6.014815 4.886323 3.120069
O 1.312524 0.925071 7.501168
O 1.312524 3.036181 2.954093
O 6.014815 6.997433 -1.427006
O 2.575787 4.608846 4.665385
O 4.751552 0.647593 5.955852
O 4.751552 3.313659 1.408777
O 2.575787 7.274911 0.118310
O 4.663880 1.529931 3.687147
O 2.663458 5.491183 6.934091
O 2.663458 6.392574 2.387016
O 4.663880 2.431322 -0.859928
O 4.898494 6.949209 4.080879
O 2.428844 2.987957 6.540358
O 2.428844 0.973296 1.993283
O 4.898494 4.934548 -0.466196
O 2.641594 3.839198 0.304082
O 4.685745 7.800450 1.223005
O 4.685745 4.083306 5.770080
O 2.641594 0.122054 4.851157
O 0.220260 1.670737 1.173224
O 7.107079 5.631990 0.353863
O 7.107079 6.251767 4.900938
O 0.220260 2.290515 5.720299
O 7.213076 4.759064 -1.900894
O 0.114263 0.797812 3.427981
O 0.114263 3.163440 7.975056
O 7.213076 7.124692 2.646181
