14

Mg 1.743708 -0.085377 3.760230
Mg 5.300408 2.600520 -3.353949
Sb 4.050073 3.916773 -0.808749
Sb 3.034399 1.147927 0.072244
Sb 6.356823 -0.439370 -3.859784
Sb 0.529232 3.382547 1.916913
O 6.653577 0.825352 -3.062457
O 3.476939 3.080642 1.117185
O 3.897048 2.594326 -1.542763
O 0.356134 4.651270 2.585634
O 3.639552 -0.237161 2.182799
O 3.213148 0.015807 -0.775293
O 6.981602 -2.060323 -2.636801
O 6.720441 -2.294088 0.526197
