22

Mg 1.862379 4.765732 5.557101
Mg 3.723305 3.494533 3.213712
Mn 1.445980 1.489098 1.733328
Mn 4.139871 6.771502 7.037025
P 1.082043 4.606373 1.412379
P 4.503630 3.654012 7.358400
P 1.230589 1.715179 4.821068
P 4.355094 6.545073 3.949691
O 0.645251 4.498139 7.292626
O 4.940383 3.762275 1.478178
O 1.686322 5.936773 1.827026
O 3.899339 2.323596 6.943794
O 2.007529 3.532765 1.845093
O 3.578266 4.727653 6.925620
O 3.427491 5.281078 4.097705
O 2.158249 2.979164 4.673113
O 0.199254 1.459036 3.638205
O 5.386463 6.801253 5.132575
O 0.408774 1.937268 6.160657
O 3.502630 1.504564 2.749008
O 2.083065 6.755674 6.021741
O 5.177010 6.322965 2.610212
