56

Mg 4.733634 6.696326 10.947098
Mg 4.733634 4.248161 3.879685
Mg 1.577884 3.048156 10.255142
Mg 1.577884 0.599999 3.187729
Cr 4.733634 2.596419 12.399551
Cr 1.577884 4.699906 1.735276
Cr 1.577884 6.244581 8.802690
Cr 4.733634 1.051743 5.332137
Cr 3.155756 0.000000 0.000000
Cr 3.155756 3.648162 7.067413
Cr 0.000000 3.648162 7.067413
Cr 0.000000 0.000000 0.000000
P 1.577884 2.662633 13.118066
P 4.733634 4.633692 1.016775
P 4.733634 6.310796 8.084174
P 1.577884 0.985536 6.050653
P 4.733634 2.833316 9.794912
P 4.733634 0.814846 2.727499
P 1.577884 6.481479 11.407328
P 1.577884 4.463001 4.339915
O 0.252915 4.422317 5.169474
O 3.408664 2.874000 8.965353
O 6.058597 0.774155 1.897940
O 2.902841 6.522170 12.236887
O 6.058597 2.874000 8.965353
O 2.902841 4.422317 5.169474
O 0.252915 6.522170 12.236887
O 3.408664 0.774155 1.897940
O 1.577884 2.399535 6.736447
O 4.733634 4.896797 7.398380
O 4.733634 6.047690 0.330953
O 1.577884 1.248635 13.803860
O 4.733634 0.937651 13.378232
O 1.577884 6.358674 0.756581
O 1.577884 4.585813 7.823994
O 4.733634 2.710519 6.310833
O 4.733634 1.520029 10.656402
O 1.577884 5.776296 3.478440
O 1.577884 5.168191 10.545839
O 4.733634 2.128141 3.588974
O 2.759197 0.919082 5.052678
O 5.914953 6.377243 9.082149
O 3.552314 4.567237 2.014736
O 0.396559 2.729081 12.120091
O 3.552314 6.377243 9.082149
O 0.396559 0.919082 5.052678
O 2.759197 2.729081 12.120091
O 5.914953 4.567237 2.014736
O 4.733634 3.572784 14.096225
O 1.577884 0.335383 10.360814
O 1.577884 3.312772 3.293401
O 4.733634 3.983545 10.841426
O 4.733634 0.075378 7.028811
O 1.577884 7.220946 7.106016
O 1.577884 3.723533 0.038588
O 4.733634 6.960942 3.774013
