46

Mn 0.266081 3.004217 0.973416
Mn 4.841630 5.501542 11.173184
Mn 2.819936 1.248662 5.099884
Mn 2.287774 7.257097 7.046716
Mn 2.553855 4.252880 -1.245802
Mn 0.000000 0.000000 7.319102
As 2.306300 7.591909 10.230056
As 0.217435 2.696453 12.343580
As 2.771291 1.556426 8.367925
As 2.336420 6.949333 3.778675
As 2.801411 0.913850 1.916544
As 4.890276 5.809306 -0.196980
As 0.247555 3.339029 4.156756
As 4.860155 5.166730 7.989844
O 0.056925 4.621553 9.651336
O 3.292124 1.938497 6.738799
O 0.404944 1.487581 11.409110
O 0.586457 6.703899 7.638894
O 4.702766 7.018179 0.737490
O 2.496930 0.368674 3.578036
O 2.958800 2.765299 9.302395
O 3.832903 7.938434 3.538399
O 4.824555 4.630637 4.999142
O 5.050785 3.884206 2.495264
O 1.967398 2.451020 1.565594
O 1.274808 0.567326 8.608201
O 1.196783 4.271643 11.986864
O 0.283156 3.875122 7.147458
O 4.450931 1.371962 1.533763
O 1.897075 2.880918 4.539537
O 3.750638 8.486996 6.233036
O 2.148911 5.740460 2.844205
O 2.270699 8.128001 -1.417446
O 1.279047 4.820205 0.043297
O 3.210636 5.624842 7.607063
O 0.656780 7.133797 10.612837
O 1.815587 6.567263 5.407802
O 0.738269 2.314383 -0.665498
O 3.910928 4.234116 0.159736
O 2.610781 8.137086 8.568565
O 4.521254 1.801860 4.507706
O 2.837012 0.377758 13.564046
O 4.369442 6.191376 12.812099
O 3.828663 3.685554 12.103303
O 1.357073 0.018764 5.913564
O 3.140313 6.054740 10.581006
