46

Co 0.092403 3.039384 0.631000
Co 4.935502 5.967745 9.959571
Co 2.606355 1.464181 4.664286
Co 2.421550 7.542948 5.926286
Co 2.513952 4.503564 -1.769384
Co 0.000000 0.000000 7.064670
As 2.450812 7.995889 8.946254
As 0.128639 2.897053 11.542534
As 2.642591 1.606511 7.882092
As 2.385313 7.400617 2.708480
As 2.577093 1.011239 1.644318
As 4.899266 6.110076 -0.951962
As 0.063140 3.492325 3.650968
As 4.964764 5.514804 6.939604
O 0.230439 4.972232 8.614071
O 3.366695 1.854117 6.295564
O 0.445362 1.614924 10.737915
O 0.714234 7.110101 6.587424
O 4.582543 7.392205 -0.147343
O 2.283513 0.468668 3.318785
O 2.959314 2.888640 8.686711
O 4.067349 7.888642 2.629311
O 4.533727 4.851149 4.335168
O 4.797466 4.034896 1.976501
O 1.799718 2.606537 1.292139
O 0.960556 1.118487 7.961261
O 0.972150 4.523578 11.038530
O 0.494178 4.155979 6.255404
O 4.223073 1.426225 1.194804
O 1.709121 3.077340 4.100482
O 3.486103 8.987115 4.847327
O 2.068591 6.118489 1.903861
O 2.019775 8.659544 -2.578650
O 1.553396 5.622052 -0.872793
O 3.318784 5.929789 6.490090
O 0.804832 7.580904 9.395768
O 1.661210 7.153011 4.295007
O 0.852743 2.649447 -1.000278
O 4.055754 4.483551 -0.447958
O 2.744391 8.538461 7.271787
O 4.313671 1.897027 4.003147
O 3.008130 0.347585 13.169222
O 4.175162 6.357682 11.590850
O 3.474508 3.385077 11.463365
O 1.541802 0.020014 5.743244
O 3.228186 6.400592 9.298433
