14

Ba 0.000000 0.000000 0.000000
Mg 0.000000 0.000000 3.728816
Bi 2.085736 2.569739 5.346556
Bi 4.171479 -0.279439 5.346556
Bi 2.085736 2.569739 2.111077
Bi 4.171479 -0.279439 2.111077
O 1.731553 0.633792 5.154380
O 4.525662 -2.262831 5.154380
O 0.000000 3.919339 5.154380
O 4.525662 1.656508 2.303253
O 6.257215 -1.629038 2.303253
O 1.731553 4.553131 2.303253
O 2.085736 2.569739 0.000000
O 4.171479 -0.279439 0.000000
