44

Mg 3.685582 0.000000 -1.519123
Mg 3.685582 3.695879 3.071417
Ti 1.277003 6.176509 4.185688
Ti 6.094161 2.480630 6.547687
Ti 6.094161 1.215249 1.957147
Ti 1.277003 4.911129 -0.404853
Ti 0.000000 0.000000 0.000000
Ti 0.000000 3.695879 4.590541
P 4.178027 0.521422 4.679465
P 3.193137 4.217301 6.053911
P 3.193137 6.870336 1.463370
P 4.178027 3.174457 0.088924
P 6.321075 5.860629 3.624613
P 1.050089 2.164750 7.108763
P 1.050089 1.531129 2.518222
P 6.321075 5.227008 -0.965928
O 5.875916 4.525944 3.071399
O 1.495248 0.830057 7.661976
O 1.495248 2.865814 3.071435
O 5.875916 6.561693 -1.519141
O 2.553725 4.442277 4.775198
O 4.817439 0.746398 5.958178
O 4.817439 2.949482 1.367637
O 2.553725 6.645361 0.184657
O 4.599577 1.622018 3.682755
O 2.771587 5.317897 7.050621
O 2.771587 5.769740 2.460080
O 4.599577 2.073861 -0.907786
O 4.837105 6.521822 4.117436
O 2.534059 2.825943 6.615940
O 2.534059 0.869936 2.025399
O 4.837105 4.565815 -0.473105
O 2.631233 3.511373 0.341087
O 4.739931 7.207253 1.211207
O 4.739931 3.880385 5.801747
O 2.631233 0.184506 4.931628
O 0.268207 1.558656 1.326244
O 7.102957 5.254535 0.226050
O 7.102957 5.833103 4.816591
O 0.268207 2.137223 5.916784
O 7.067936 4.278276 -1.977793
O 0.303228 0.582397 3.530087
O 0.303228 3.113482 8.120628
O 7.067936 6.809362 2.612748
