13

Mg 1.052990 1.625444 2.247431
Mo 2.090016 2.353091 5.456973
Mo 0.352808 4.097355 2.313719
Mo 2.740791 5.026986 8.160121
Mo 1.140345 6.785989 5.171117
O 2.803759 6.520126 6.678614
O 1.523250 3.324927 6.683061
O 1.706677 5.799874 3.687012
O 0.544253 2.582814 3.674543
O 0.556953 0.393462 5.278776
O 2.536235 3.741106 2.386707
O 2.666895 1.354950 3.905249
O 0.756894 4.977530 8.265934
