60

Fe 1.839118 1.839118 9.219377
Fe 5.517355 5.517355 14.298722
Fe 5.517355 5.517355 6.459356
Fe 1.839118 1.839118 1.380011
Si 6.820716 3.723707 10.183557
Si 4.213994 7.311003 10.183557
Si 0.045470 3.142479 13.334543
Si 3.723707 4.213994 10.183557
Si 7.311003 6.820716 10.183557
Si 0.535757 0.045470 13.334543
Si 3.142479 3.632773 13.334543
Si 3.632773 0.535757 13.334543
Si 0.535757 3.632773 5.495176
Si 3.142479 0.045470 5.495176
Si 7.311003 4.213994 2.344190
Si 3.632773 3.142479 5.495176
Si 0.045470 0.535757 5.495176
Si 6.820716 7.311003 2.344190
Si 4.213994 3.723707 2.344190
Si 3.723707 6.820716 2.344190
O 0.178262 2.582740 9.264093
O 3.499974 1.095497 9.264093
O 6.260976 3.856499 14.254007
O 2.582740 3.499974 9.264093
O 1.095497 0.178262 9.264093
O 7.178211 6.260976 14.254007
O 3.856499 4.773733 14.254007
O 4.773733 7.178211 14.254007
O 7.178211 4.773733 6.414640
O 3.856499 6.260976 6.414640
O 1.095497 3.499974 1.424726
O 4.773733 3.856499 6.414640
O 6.260976 7.178211 6.414640
O 0.178262 1.095497 1.424726
O 3.499974 2.582740 1.424726
O 7.344622 2.131332 5.817610
O 2.582740 0.178262 1.424726
O 3.666385 5.809569 9.861123
O 1.546904 3.690088 13.656976
O 5.225141 3.666385 9.861123
O 5.809569 0.011851 9.861123
O 7.344622 1.546904 13.656976
O 3.690088 2.131332 13.656976
O 2.131332 7.344622 13.656976
O 3.385471 7.063700 3.919683
O 3.971002 3.385471 3.919683
O 7.063700 0.292766 3.919683
O 0.292766 3.971002 3.919683
O 3.971002 0.292766 11.759050
O 3.385471 3.971002 11.759050
O 0.292766 7.063700 11.759050
O 7.063700 3.385471 11.759050
O 5.225141 0.011851 2.021757
O 3.666385 5.225141 2.021757
O 0.011851 5.809569 2.021757
O 1.546904 7.344622 5.817610
O 2.131332 3.690088 5.817610
O 5.809569 3.666385 2.021757
O 3.690088 1.546904 5.817610
O 0.011851 5.225141 9.861123
