28

Mg 0.983865 7.214919 1.455300
Mg 0.983808 2.404963 3.503624
Mg 2.025995 7.214891 6.414112
Mg 2.026025 2.404983 8.462457
Mn 2.399873 5.491479 3.814621
Mn 2.399873 0.681552 1.144213
Mn 0.610002 0.681534 6.103079
Mn 2.399849 4.128451 1.144280
Mn 0.610026 4.128434 6.103017
Mn 2.399876 8.938320 3.814648
Mn 0.609978 8.938313 8.773445
Mn 0.609969 5.491480 8.773457
O 0.610709 8.514221 5.285160
O 2.399148 1.105643 4.632547
O 1.130683 9.619846 2.479451
O 2.399145 8.514258 0.326383
O 2.399142 5.915579 0.326407
O 2.475204 2.404997 2.048467
O 0.610709 1.105625 9.591294
O 0.534644 2.404978 7.007210
O 1.130692 4.809957 2.479470
O 1.879177 9.619843 7.438237
O 0.610718 5.915562 5.285154
O 0.534635 7.214876 7.869250
O 2.475228 7.214915 2.910497
O 1.879165 4.809965 7.438247
O 0.610706 3.704314 9.591329
O 2.399160 3.704321 4.632553
