14

Mg 5.899041 2.948889 2.954748
Mg 0.740183 3.593883 4.488270
Co 1.569636 2.046863 2.398306
Co 3.742900 2.481183 5.110858
Co 3.742900 5.088648 3.527450
Co 3.742900 5.088648 5.984280
O 2.384408 3.135655 3.676816
O 2.384408 3.135655 5.940408
O 2.384408 5.538036 4.481540
O 5.113205 4.504992 5.050313
O 2.365386 5.652320 6.893713
O 5.067767 4.627980 7.457154
O 5.067767 7.009046 6.011229
O 5.067767 7.009046 8.254739
