16

Mg 1.223059 -0.816761 3.013274
Mg 1.805287 5.932360 7.016221
Mg 0.605183 5.459771 1.712497
Mg 2.423069 -0.344286 8.317034
Co 1.405993 0.794397 5.447442
Co 0.687157 2.219390 2.397687
Co 2.340852 2.896571 7.632189
Co 1.623405 4.320797 4.582693
O 0.151881 6.416316 4.948849
O 1.521759 1.786483 7.074048
O 1.506505 3.329325 2.955823
O 2.876778 -1.301659 5.081516
O 0.593182 0.110618 6.590015
O 2.042958 0.039290 2.213217
O 2.435264 5.005171 3.439506
O 0.985030 5.076838 7.816555
