24

Bi 3.145766 5.224126 5.939976
Bi 3.138398 5.223171 0.244321
Bi 3.047460 1.740697 6.547838
Bi 3.051826 1.741868 12.243138
Bi 0.001393 3.482047 6.263219
Bi 6.190639 0.000631 12.460207
Bi 0.001362 0.000195 6.250152
Bi -0.001121 3.482465 12.513585
O 5.434803 5.226357 5.065248
O 5.408042 5.221654 1.129823
O 0.757681 1.738598 7.420934
O 0.782671 1.743469 11.356071
O 1.051410 5.221447 7.210174
O 1.021164 5.225553 11.544743
O 5.140882 1.743564 5.276146
O 5.169710 1.739729 0.941163
O 4.314002 3.672254 7.200131
O 4.312887 6.810981 11.515151
O 1.880358 0.193512 5.276114
O 1.876705 3.324640 0.983380
O 1.879782 3.292583 5.287030
O 1.876792 0.154065 0.971737
O 4.313488 6.771472 7.210997
O 4.312850 3.640649 11.503260
