52

Fe 4.738636 2.677780 12.407807
Fe 1.578236 5.067649 1.669532
Fe 1.580175 6.546104 8.709526
Fe 4.736659 1.197236 5.359081
Ni 3.158815 0.002571 0.001146
Ni 3.157830 3.870911 7.035947
Ni 0.000903 3.869308 7.037265
Ni 6.316992 0.004771 0.000869
P 1.580257 2.705650 13.218336
P 4.736767 5.038030 0.857091
P 4.739079 6.579820 7.897072
P 1.577825 1.162428 6.176877
P 4.739527 3.024068 9.684474
P 1.578236 4.720580 4.391373
P 1.580624 6.893235 11.430927
P 4.737000 0.852837 2.640563
O 0.292254 4.628160 5.233012
O 3.452068 3.114277 8.841157
O 6.024573 0.763829 1.800902
O 2.867963 6.982188 12.275286
O 6.027290 3.116226 8.842018
O 2.864331 4.630324 5.232858
O 0.292924 6.980425 12.275087
O 3.449774 0.762360 1.800378
O 1.578937 2.619969 6.754881
O 4.738257 5.122945 7.317164
O 4.737398 6.494781 0.273648
O 1.579752 1.250517 13.805862
O 4.739028 1.092015 13.433614
O 1.578097 6.653438 0.644331
O 1.580870 4.962436 7.690802
O 4.736495 2.782150 6.383650
O 4.740329 1.728407 10.544998
O 1.577073 6.017224 3.529988
O 1.583056 5.594556 10.579044
O 4.734682 2.150966 3.496731
O 2.803692 1.040659 5.256869
O 5.963094 6.700794 8.820722
O 3.510812 4.918356 1.778054
O 0.353715 2.823363 12.298175
O 3.514147 6.701365 8.819377
O 0.352647 1.042019 5.255763
O 2.805865 2.823885 12.296882
O 5.963505 4.918630 1.777072
O 4.737910 7.516694 3.761981
O 1.578627 0.235848 10.317331
O 1.579215 3.644312 3.257890
O 4.738030 4.099879 10.818155
O 4.740203 7.603157 6.780345
O 1.576751 0.138635 7.292323
O 1.580680 3.733584 0.237276
O 4.736577 4.012596 13.836694
