44

Mg 4.030444 0.000000 -1.386125
Mg 4.030444 3.949656 3.526344
Sn 1.583723 6.788938 4.558576
Sn 6.477165 2.839282 7.406581
Sn 6.477165 1.110375 2.494112
Sn 1.583723 5.060031 -0.353893
Sn 0.000000 0.000000 0.000000
Sn 0.000000 3.949656 4.912469
P 4.503787 0.463192 5.331303
P 3.557100 4.412849 6.633854
P 3.557100 7.436121 1.721385
P 4.503787 3.486464 0.418834
P 6.552091 6.285381 4.345448
P 1.508797 2.335724 7.619710
P 1.508797 1.613932 2.707240
P 6.552091 5.563589 -0.567022
O 6.154987 4.949954 3.736805
O 1.905900 1.000298 8.228352
O 1.905900 2.949359 3.315883
O 6.154987 6.899015 -1.175664
O 3.160198 4.464834 5.238391
O 4.900689 0.515177 6.726766
O 4.900689 3.434479 1.814297
O 3.160198 7.384136 0.325922
O 5.223528 1.565004 4.469519
O 2.837360 5.514660 7.495638
O 2.837360 6.334309 2.583169
O 5.223528 2.384653 -0.442950
O 5.034597 6.937769 4.734482
O 3.026291 2.988113 7.230675
O 3.026291 0.961544 2.318206
O 5.034597 4.911200 -0.177987
O 2.937782 3.548363 0.342118
O 5.123105 7.498020 1.798101
O 5.123105 4.350949 6.710570
O 2.937782 0.401293 5.254587
O 0.696348 1.686266 1.526608
O 7.364540 5.635923 0.613611
O 7.364540 6.213047 5.526080
O 0.696348 2.263390 6.439077
O 7.323010 4.583663 -1.562783
O 0.737878 0.634007 3.703002
O 0.737878 3.315650 8.615471
O 7.323010 7.265306 3.349686
