52

Fe 4.826809 2.700489 12.391788
Fe 1.604072 5.124469 1.699716
Fe 1.604953 6.601340 8.762527
Fe 4.826185 1.223509 5.335184
Fe 3.215399 7.823866 14.092826
Fe 3.215521 3.911454 7.052101
Fe 0.000193 3.909581 7.052268
Fe 0.000244 7.822126 14.093471
P 1.609680 2.743482 13.249560
P 4.821356 5.083205 0.837371
P 4.821375 6.665924 7.885336
P 1.609848 1.158909 6.214336
P 4.822700 3.089617 9.718312
P 4.823870 0.834236 2.659309
P 1.607481 6.993225 11.431655
P 1.608497 4.736741 4.384348
O 0.338975 4.603487 5.247090
O 3.552534 3.218641 8.856580
O 6.095045 0.700566 1.799210
O 2.877833 7.126081 12.291669
O 6.093238 3.223302 8.857897
O 2.877543 4.608710 5.248576
O 0.336242 7.127974 12.290949
O 3.553969 0.701623 1.798181
O 1.607905 2.597769 6.850217
O 4.823478 5.223082 7.258277
O 4.823889 6.519134 0.194295
O 1.607860 1.307983 13.894244
O 4.828115 1.101922 13.467826
O 1.602850 6.726556 0.625140
O 1.604805 5.003085 7.693471
O 4.826308 2.817665 6.414515
O 4.825510 1.782178 10.575997
O 1.605391 6.041216 3.521942
O 1.605301 5.684195 10.577266
O 4.825806 2.141490 3.516240
O 2.857401 1.033392 5.340106
O 6.067533 6.802466 8.760637
O 3.572960 4.963002 1.710519
O 0.364783 2.866294 12.371330
O 3.573970 6.796612 8.758346
O 0.363491 1.027795 5.337842
O 2.856764 2.861775 12.375060
O 6.067160 4.956975 1.714760
O 4.822346 4.002545 13.864776
O 1.607159 0.175602 10.239828
O 1.610671 3.731888 3.183260
O 4.820854 4.096904 10.917648
O 4.822397 7.736087 6.795223
O 1.608831 0.081033 7.296546
O 1.608298 3.828271 0.218763
O 4.824295 7.652352 3.851263
