40

Mo 1.650240 0.249355 3.442605
Mo 4.500791 11.245347 2.082962
Mo 4.050860 5.996706 7.608528
Mo 1.200310 5.497996 8.968171
Mo 1.670759 8.621026 2.553884
Mo 4.521309 2.873675 2.971683
Mo 4.030342 2.873675 8.497249
Mo 1.179791 8.621026 8.079450
Mo 4.500791 5.996706 2.082962
Mo 1.650240 5.497996 3.442605
Mo 1.200310 0.249355 8.968171
Mo 4.050860 11.245347 7.608528
O 5.354359 1.253555 8.100712
O 2.503809 10.241147 8.475987
O 0.346741 7.000906 2.950420
O 3.197291 4.493796 2.575146
O 0.346741 10.241147 2.950420
O 3.197291 1.253555 2.575146
O 5.354359 4.493796 8.100712
O 2.503809 7.000906 8.475987
O 2.719294 1.252888 8.057580
O 5.569844 10.241814 8.519119
O 2.981807 7.000239 2.993553
O 0.131256 4.494463 2.532013
O 2.981807 10.241814 2.993553
O 0.131256 1.252888 2.532013
O 2.719294 4.494463 8.057580
O 5.569844 7.000239 8.519119
O 1.157683 8.621026 6.319900
O 4.008233 2.873675 10.256800
O 4.543418 2.873675 4.731233
O 1.692868 8.621026 0.794333
O 1.261220 5.104303 10.620072
O 4.111770 6.390399 5.956627
O 4.439880 10.851654 0.431060
O 1.589330 0.643048 5.094506
O 4.439880 6.390399 0.431060
O 1.589330 5.104303 5.094506
O 1.261220 0.643048 10.620072
O 4.111770 10.851654 5.956627
