46

V 0.290242 2.563109 1.066547
V 4.702917 5.095873 11.663180
V 2.786822 1.266382 5.298316
V 2.206337 6.392599 7.431410
V 2.496580 3.829491 -1.476197
V 0.000000 0.000000 7.841060
As 2.229506 7.394157 10.426410
As 0.246722 2.296132 13.345655
As 2.743302 1.533359 8.701328
As 2.249858 6.125623 4.028399
As 2.763654 0.264825 2.303317
As 4.746437 5.362849 -0.615929
As 0.267074 3.564666 4.061546
As 4.726085 4.094315 8.668180
O 0.126192 4.138331 10.342059
O 3.405195 1.759919 7.096011
O 0.815937 1.115385 12.499901
O 0.677202 5.762204 8.079767
O 4.177222 6.543596 0.229826
O 2.370388 0.308841 3.977196
O 3.312517 2.714106 9.547082
O 3.717876 7.036659 3.525989
O 4.323786 4.553862 4.817043
O 4.866967 3.520650 2.387652
O 1.819377 1.932713 1.714904
O 1.275283 0.622323 9.203738
O 1.171006 3.872389 12.781274
O 0.669373 3.105120 7.912684
O 4.172104 1.130512 1.444323
O 1.675524 2.698979 4.920541
O 3.667585 7.616083 6.313316
O 1.680642 4.944876 3.182644
O 1.827207 6.934610 -1.404572
O 1.221297 4.451814 -0.113519
O 3.317635 4.960002 7.809186
O 0.821055 6.528470 11.285404
O 1.587964 5.899062 5.633716
O 0.908615 2.069572 -0.731148
O 3.822154 3.786593 -0.051547
O 2.622772 7.350141 8.752531
O 4.315957 1.896777 4.649959
O 3.165953 0.724371 14.134299
O 4.084544 5.589410 13.460874
O 3.771862 3.207168 12.843246
O 1.325574 0.042898 6.416410
O 3.173782 5.726268 11.014823
