37

O 5.925606 4.017361 0.688998
O 0.825652 2.236794 2.404487
O 1.791730 3.643154 4.292121
O 4.959528 2.611000 -1.198635
O 5.300176 1.046234 1.833849
O 1.451082 5.207920 1.259636
O 4.505236 6.524334 0.281560
O 2.246022 -0.270180 2.811925
O 4.366234 4.768798 -4.092447
O 2.385024 1.485356 7.185932
O 3.199691 5.348339 -1.322049
O 3.551567 0.905815 4.415534
O 0.891429 0.018979 5.415000
O 0.488372 0.305969 0.913900
O 6.262885 5.948186 2.179586
O 3.772751 0.093243 0.152575
O 2.978506 6.160912 2.940910
O 1.222173 3.201409 -0.240671
O 5.529084 3.052746 3.334157
O 6.662945 0.519044 3.963990
O 0.088313 5.735111 -0.870505
O 1.581300 5.856369 5.532817
O 5.169958 0.397785 -2.439331
O 5.859828 6.235175 -2.321515
Mg 0.000000 3.994875 2.871306
Mg 1.882872 1.841860 5.436794
Mg 4.868386 4.412294 -2.343308
V 5.247260 1.381210 3.377845
V 1.503998 4.872945 -0.284360
V 6.060294 5.676746 0.682962
V 2.694042 5.114038 4.406409
V 0.690964 0.577408 2.410523
V 4.057216 1.140117 -1.312924
Fe 2.565505 6.960148 1.361917
Fe 4.185753 -0.705993 1.731569
Fe 0.313036 1.603134 -0.664457
Fe 6.438222 4.651021 3.757942
