34

Ti 1.209733 1.661154 1.952106
Ti 5.581734 7.664604 9.007060
V 3.157748 4.336087 5.095553
V 7.529749 10.339537 12.150507
P 0.291079 3.679172 6.596724
P 4.123488 7.710801 4.269576
P 6.517491 3.621473 6.774400
P 2.145490 8.379927 7.340246
P 4.663080 4.248791 9.872956
P 8.495489 8.386177 7.482452
O 1.266919 4.429733 3.888733
O 2.419352 2.335991 5.169522
O 0.581520 2.462910 7.469394
O 4.410527 4.352460 4.007279
O 0.038526 4.845279 7.128545
O 1.901112 4.313215 6.113178
O 2.526536 8.148613 4.107957
O 3.890880 6.262063 4.991413
O 1.802664 0.952219 3.522886
O 4.965142 4.195970 6.253841
O 0.593141 7.377637 7.764295
O 3.211558 3.204356 2.206077
O 5.638920 8.729291 4.930466
O 7.994764 4.634405 6.338902
O 3.622763 7.777776 7.872297
O 6.791353 3.547064 8.061478
O 4.953521 5.663210 9.169661
O 6.273114 3.753503 10.065960
O 6.898537 7.808391 7.929249
O 0.022734 2.759963 2.399007
O 4.394736 7.557791 10.176215
O 8.262881 9.643556 6.583131
O 6.174665 9.684413 8.943126
O 7.583560 7.684682 10.173491
