80

Mg 3.836832 5.955856 -3.852090
Mg 1.278944 1.985285 1.500645
Mg 3.836832 -0.073144 0.206663
Mg 1.278944 3.191085 4.030505
Mg 8.952607 4.250597 -1.380336
Mg 7.673664 -1.352088 -0.028028
Mg 7.673664 3.471112 1.737385
Mg 6.394720 0.280027 3.972400
Mg 2.557888 7.587970 0.148338
Mg 8.952607 3.044797 -3.910196
Mg 6.394720 6.309027 -0.086353
Mg 2.557888 2.764771 -1.617076
Mn 0.000000 0.000000 0.000000
Mn 0.000000 4.823200 -2.411600
Mn 0.000000 0.000000 4.177013
Mn 0.000000 4.823200 1.765413
Mn 5.115776 -1.705258 2.471755
Mn 5.115776 3.117941 -4.116859
Mn 5.115776 3.117941 0.060155
Mn 5.115776 -1.705258 -1.705259
Si 2.557888 0.353171 5.854244
Si 7.673664 5.882712 -5.733934
Si 3.836832 1.132656 2.736523
Si 6.394720 1.485827 -1.851767
Si 1.278944 6.808485 3.266059
Si 8.952607 -1.778402 2.678417
Si 7.673664 1.059512 0.854679
Si 3.836832 4.750056 1.972076
Si 1.278944 8.014285 -2.558108
Si 8.952607 -0.572602 -3.145749
Si 6.394720 5.103227 -2.616213
Si 2.557888 5.176370 -0.734369
O 2.920750 3.638621 -0.148805
O 0.223795 2.890107 5.933670
O 1.281246 5.393092 4.270759
O 2.195026 4.953044 -1.964532
O 2.195026 0.476295 -1.152933
O 6.029556 -0.151357 -1.146868
O 6.173227 -0.199248 1.007296
O 1.971231 1.412413 3.231289
O 9.174100 0.557196 0.057463
O 3.144545 7.736698 -3.055839
O 9.317772 -0.352214 -1.915269
O 0.223795 1.994892 -0.063210
O 1.971231 3.955127 2.077240
O 6.029556 6.639573 -3.203684
O 1.281246 -0.216086 1.259651
O 4.891981 4.189514 -2.931244
O 3.834530 4.406543 3.370085
O 9.174100 -2.847037 -0.596022
O 6.173227 6.727137 -5.404049
O 1.057451 5.678686 0.062846
O 9.317772 -1.897953 1.330509
O 3.834530 1.475533 1.339254
O 3.144545 7.601243 -5.190166
O 2.920750 1.991122 5.151993
O 7.310802 2.597262 0.269114
O 10.007757 3.345776 -5.813361
O 8.950305 0.842790 -4.150450
O 8.036526 1.282838 2.084841
O 8.036526 5.759588 1.273242
O 4.201996 6.387240 1.267178
O 4.058324 6.435130 -0.886986
O 8.260320 4.823469 -3.110980
O 7.310802 4.244761 -5.031683
O 7.087007 -1.365361 5.310476
O 6.397022 4.760350 -1.218945
O 5.339570 4.251313 1.173802
O 0.913780 8.133836 -1.210200
O 4.058324 -0.491255 5.524359
O 1.057451 9.082920 0.716331
O 6.397022 1.829339 -3.249775
O 5.339570 2.046368 3.051554
O 8.950305 6.451969 -1.139342
O 4.201996 -0.403690 3.323993
O 8.260320 2.280756 -1.956930
O 10.007757 4.240991 0.183520
O 0.913780 6.588097 2.035578
O 7.087007 -1.500815 3.176149
O 4.891981 1.984569 -1.053493
