80

O 7.245776 4.220768 -5.004922
O 7.038569 -1.352055 5.302903
O 6.353744 4.713468 -1.206750
O 5.299295 4.223936 1.154536
O 0.892042 8.114884 -1.206737
O 4.037649 -0.504858 5.518811
O 1.054439 9.054896 0.692300
O 6.353744 1.841926 -3.236889
O 5.299295 2.040300 3.056252
O 8.922519 6.432203 -1.120496
O 4.200045 -0.405881 3.290728
O 8.237694 2.250325 -1.947283
O 9.976968 4.245560 0.173942
O 0.892042 6.534036 2.033928
O 7.038569 -1.505164 3.149449
O 1.054439 5.638888 0.082660
O 8.237694 4.825318 -3.102183
O 4.037649 6.420690 -0.902313
O 4.200045 6.366557 1.273564
O 8.030487 5.735402 1.263216
O 8.030487 1.283012 2.069300
O 8.922519 0.832559 -4.149189
O 9.976968 3.310370 -5.782723
O 7.245776 2.580964 0.274440
O 2.938399 1.986240 5.124675
O 3.145607 7.559062 -5.183150
O 3.830431 1.493539 1.326503
O 4.884880 1.983072 -1.034783
O 9.292133 -1.907877 1.326490
O 6.146527 6.711865 -5.399058
O 9.129736 -2.847889 -0.572547
O 3.830431 4.365081 3.356642
O 4.884880 4.166707 -2.936499
O 1.261656 -0.225195 1.240249
O 5.984130 6.612888 -3.170975
O 1.946481 3.956682 2.067036
O 0.207207 1.961448 -0.054189
O 9.292133 -0.327028 -1.914175
O 3.145607 7.712172 -3.029696
O 9.129736 0.568120 0.037093
O 1.946481 1.381690 3.221936
O 6.146527 -0.213682 1.022066
O 5.984130 -0.159550 -1.153811
O 2.153688 0.471605 -1.143463
O 2.153688 4.923995 -1.949547
O 1.261656 5.374449 4.268942
O 0.207207 2.896637 5.902476
O 2.938399 3.626043 -0.154687
Mg 2.546044 2.751968 -1.609588
Mg 3.819066 5.928277 -3.834254
Mg 1.273022 1.976092 1.493697
Mg 3.819066 -0.072805 0.205706
Mg 1.273022 3.176309 4.011843
Mg 7.638131 -1.345827 -0.027898
Mg 7.638131 3.455039 1.729341
Mg 6.365109 0.278730 3.954006
Mg 8.911153 4.230915 -1.373944
Mg 6.365109 6.279813 -0.085953
Mg 8.911153 3.030698 -3.892090
Mg 2.546044 7.552835 0.147651
Si 7.638131 5.855472 -5.707384
Si 3.819066 1.127411 2.723852
Si 6.365109 1.478946 -1.843192
Si 1.273022 6.776959 3.250936
Si 1.273022 7.977175 -2.546263
Si 8.911153 -1.770168 2.666015
Si 7.638131 1.054606 0.850722
Si 3.819066 4.728061 1.962945
Si 2.546044 5.152401 -0.730969
Si 6.365109 5.079596 -2.604099
Si 8.911153 -0.569951 -3.131183
Si 2.546044 0.351535 5.827137
Cr 5.092088 3.103504 0.059876
Cr 5.092088 3.103504 -4.097796
Cr 5.092088 -1.697363 2.460310
Cr 5.092088 -1.697363 -1.697363
Cr 0.000000 0.000000 4.157672
Cr 0.000000 4.800866 -2.400433
Cr 0.000000 0.000000 0.000000
Cr 0.000000 4.800866 1.757239
