42

Mg 0.720905 0.985267 2.369510
Mg 0.734840 1.002228 7.240255
Mg 2.971963 4.052326 11.915308
Mg 0.740594 1.013294 12.106336
Mg 2.973932 4.063746 7.049240
Mg 5.207496 7.113439 21.466571
Co 2.967952 4.054447 9.460480
Co 2.967232 1.497512 6.893859
Co 2.976146 4.060441 14.331210
Co 0.021361 2.585415 5.043714
Co 2.969797 1.504423 11.759976
Co 2.975931 4.071180 16.788445
Co 5.233492 7.148404 16.595423
Co 2.972861 4.060750 19.228696
Co 0.024443 2.593895 9.915588
Co 2.972457 6.636535 21.808889
Co 5.940837 5.539233 23.672925
Co 5.214023 7.121127 26.334241
O 1.514188 2.069235 4.925923
O 1.537215 2.097841 7.169707
O 1.515128 4.452084 7.317126
O 4.260325 3.438664 9.041826
O 1.495439 2.015617 9.764468
O 1.670307 4.681164 9.910741
O 1.538673 2.098129 12.036808
O 4.438442 3.660825 11.649749
O 4.413119 6.030474 11.795039
O 1.466521 4.437763 12.170817
O 4.279437 3.423493 13.962176
O 4.435622 6.059863 14.055211
O 1.620189 2.212598 14.764578
O 1.724489 4.609418 14.892178
O 4.345466 3.667046 16.559282
O 1.537858 2.100314 16.906654
O 4.418968 6.043064 16.670281
O 1.624081 4.482627 17.036277
O 4.231854 3.521630 18.676794
O 4.317714 5.923425 18.798921
O 1.652719 4.702107 19.605793
O 4.470264 3.661178 21.376379
O 4.408882 6.023680 21.533633
O 4.474405 6.111474 23.835733
