60

V 1.849866 1.849866 9.019674
V 5.549599 5.549599 14.493063
V 5.549599 5.549599 6.655484
V 1.849866 1.849866 1.182095
Si 6.829262 3.736789 10.188288
Si 4.269935 7.362408 10.188288
Si 0.037057 3.129530 13.324448
Si 3.736789 4.269935 10.188288
Si 7.362408 6.829262 10.188288
Si 0.570203 0.037057 13.324448
Si 3.129530 3.662676 13.324448
Si 3.662676 0.570203 13.324448
Si 0.570203 3.662676 5.486870
Si 3.129530 0.037057 5.486870
Si 7.362408 4.269935 2.350709
Si 3.662676 3.129530 5.486870
Si 0.037057 0.570203 5.486870
Si 6.829262 7.362408 2.350709
Si 4.269935 3.736789 2.350709
Si 3.736789 6.829262 2.350709
O 0.201931 2.642119 9.272546
O 3.497801 1.057613 9.272546
O 6.341852 3.901664 14.240191
O 2.642119 3.497801 9.272546
O 1.057613 0.201931 9.272546
O 7.197533 6.341852 14.240191
O 3.901664 4.757345 14.240191
O 4.757345 7.197533 14.240191
O 7.197533 4.757345 6.402612
O 3.901664 6.341852 6.402612
O 1.057613 3.497801 1.434967
O 4.757345 3.901664 6.402612
O 6.341852 7.197533 6.402612
O 0.201931 1.057613 1.434967
O 3.497801 2.642119 1.434967
O 0.010485 2.164425 5.824512
O 2.642119 0.201931 1.434967
O 3.710217 5.864157 9.850645
O 1.535308 3.689247 13.662091
O 5.235040 3.710217 9.850645
O 5.864157 7.388980 9.850645
O 0.010485 1.535308 13.662091
O 3.689247 2.164425 13.662091
O 2.164425 0.010485 13.662091
O 3.378011 7.077736 3.918789
O 4.021454 3.378011 3.918789
O 7.077736 0.321721 3.918789
O 0.321721 4.021454 3.918789
O 4.021454 0.321721 11.756368
O 3.378011 4.021454 11.756368
O 0.321721 7.077736 11.756368
O 7.077736 3.378011 11.756368
O 5.235040 7.388980 2.013066
O 3.710217 5.235040 2.013066
O 7.388980 5.864157 2.013066
O 1.535308 0.010485 5.824512
O 2.164425 3.689247 5.824512
O 5.864157 3.710217 2.013066
O 3.689247 1.535308 5.824512
O 7.388980 5.235040 9.850645
