40

Mg 4.800960 4.809042 0.720051
Mg 1.600320 2.868350 7.442808
V 1.600320 2.749835 1.353823
V 4.800960 4.927558 6.809037
V 1.600320 5.997771 2.916529
V 3.200640 0.000000 0.000000
V 4.800960 1.679621 5.246330
V 0.000000 0.000000 0.000000
P 1.600320 1.655031 4.570465
P 4.800960 6.022361 3.592395
P 1.600320 5.589855 6.286565
P 4.800960 2.087537 1.876294
P 4.800960 2.460666 8.285966
P 1.600320 5.216727 -0.123106
O 4.800960 2.830509 6.765978
O 3.609202 5.747749 2.666785
O 1.600320 5.933641 4.814388
O 3.490164 1.666723 8.599337
O 4.800960 5.065659 4.842108
O 4.800960 6.756950 7.453345
O 1.600320 2.611734 3.320752
O 0.289524 6.010669 -0.436477
O 1.600320 0.180918 4.115734
O 4.800960 7.496474 4.047126
O 0.409272 4.667693 6.763840
O 1.600320 0.920443 0.709514
O 3.609912 3.009699 1.399019
O 4.800960 3.920906 8.797892
O 4.800960 1.743751 3.348472
O 2.911117 6.010669 -0.436477
O 5.992719 5.747749 2.666785
O 2.792078 1.929643 5.496075
O 2.791368 4.667693 6.763840
O 1.600320 4.846884 1.396882
O 4.800960 0.747072 1.147439
O 1.600320 6.930320 7.015421
O 5.992008 3.009699 1.399019
O 6.111757 1.666723 8.599337
O 0.408562 1.929643 5.496075
O 1.600320 3.756487 -0.635032
