22

Nb 4.049676 1.892557 2.124272
Nb 3.842354 0.270964 7.612077
Nb 1.213069 4.307776 5.337232
Nb 1.419944 5.928891 -0.149221
Te 3.946496 4.002621 8.423204
Te 1.317075 2.195951 9.045773
O 0.452228 1.305659 0.533884
O 2.180528 0.603044 8.782066
O 4.810907 4.892660 6.928950
O 3.083411 5.595089 -1.317555
O 2.988103 2.791579 -0.031290
O 4.904264 2.145966 8.393410
O 2.275420 3.406758 7.494586
O 0.359413 4.052910 -0.930316
O 2.283272 1.526069 2.715974
O 0.350068 5.734848 3.945979
O 1.880323 5.007259 1.427122
O 0.751592 2.724388 5.002389
O 3.381013 1.194902 6.036471
O 4.509319 3.477903 2.454731
O 4.913330 0.467349 3.517030
O 2.979642 4.673774 4.745501
