16

Mg 3.494637 2.338410 8.849891
Mg 0.426009 0.923096 2.949964
Mo 0.780631 1.687199 7.053894
Mo 3.140015 1.574308 4.745949
Mo 3.140015 1.574308 1.153979
Mo 0.780631 1.687199 10.645888
O 2.745379 0.721860 2.949964
O 1.175268 2.539646 8.849891
O 0.920810 1.992983 0.939469
O 2.999841 1.268521 10.860386
O 2.999841 1.268521 6.839397
O 0.920810 1.992983 4.960447
O 0.116451 0.249399 7.481238
O 3.804192 3.012099 4.318617
O 0.116451 0.249399 10.218545
O 3.804192 3.012099 1.581322
