14

Mg 2.043377 3.405629 1.479642
Mg 3.405628 2.043377 -1.323121
Cu 0.000000 0.000000 2.802763
Cu 0.000000 2.724503 -1.362251
Cu 2.724502 0.000000 1.440512
Cu 0.000000 0.000000 0.000000
O 4.055493 4.177273 -1.377943
O 4.239805 1.393513 -2.752336
O 1.271732 1.393512 -1.268299
O 1.393512 1.271733 1.534464
O 1.393512 4.239806 0.050428
O 1.209200 4.055493 2.908857
O 4.055493 1.209200 0.106093
O 4.177272 4.055493 1.424820
