40

Mg 4.992184 4.739722 0.738726
Mg 1.664061 3.082260 7.885144
Mo 1.664061 2.815734 1.502278
Mo 4.992184 5.006248 7.121592
Mo 1.664061 6.016653 3.187393
Mo 3.328122 0.000000 0.000000
Mo 4.992184 1.805329 5.436476
Mo 0.000000 0.000000 0.000000
P 1.664061 1.694061 4.826646
P 4.992184 6.127921 3.797224
P 1.664061 5.714263 6.670805
P 4.992184 2.107719 1.953065
P 4.992184 2.508275 8.727201
P 1.664061 5.313707 -0.103331
O 4.992184 2.811072 7.193975
O 3.778970 5.836583 2.892961
O 1.664061 6.217967 5.238352
O 3.658725 1.764412 9.048201
O 4.992184 5.115013 5.032731
O 4.992184 6.928493 7.754530
O 1.664061 2.706969 3.591139
O 0.330602 6.057570 -0.424331
O 1.664061 0.240010 4.347196
O 4.992184 7.581972 4.276674
O 0.481067 4.762539 7.110846
O 1.664061 0.893489 0.869329
O 3.809189 3.059443 1.513024
O 4.992184 3.969492 9.243258
O 4.992184 1.604015 3.385518
O 2.997520 6.057570 -0.424331
O 6.205397 5.836583 2.892961
O 2.877275 1.985399 5.730908
O 2.847056 4.762539 7.110846
O 1.664061 5.010910 1.429895
O 4.992184 0.819040 1.118015
O 1.664061 7.002942 7.505854
O 6.175178 3.059443 1.513024
O 6.325642 1.764412 9.048201
O 0.450847 1.985399 5.730908
O 1.664061 3.852490 -0.619389
