28

P 0.209884 0.087154 4.614636
P 5.039198 -1.153975 5.801050
P 3.267331 1.256474 1.312820
P 1.995612 3.872289 -2.339736
W 6.215133 0.813055 -1.405713
W 2.597151 2.592079 3.634879
W 6.194713 -2.302043 0.114221
W 6.175153 0.867444 2.756022
O 4.251469 1.392439 -0.136316
O 4.691671 1.854516 3.690901
O 2.182464 2.694021 5.549060
O 5.743609 -0.637469 4.301507
O 1.551261 0.798370 1.479914
O 3.033761 2.452522 1.732847
O 0.527691 3.352736 3.602607
O 5.911727 2.242733 -2.703350
O 6.518112 -0.630174 -0.148913
O 1.064625 3.717543 -0.876876
O 1.673002 0.896843 4.367316
O 3.557844 4.283054 2.903219
O 6.628796 2.362484 1.187506
O 0.992953 4.771149 5.148775
O 0.679963 5.196940 0.923435
O 6.278373 -1.961448 -1.851412
O 6.080208 -2.608469 2.082495
O 4.600575 -0.072993 -1.913218
O 3.738470 4.301419 -2.536646
O 4.260427 0.389745 2.194427
