18

O 0.300949 5.270895 4.151169
O 1.198040 6.084898 1.611454
O 0.685537 2.408599 4.232447
O 2.395057 4.019838 3.053540
O 4.037417 5.450029 1.649690
O 2.267606 3.904191 0.531790
O 4.248971 2.008823 4.401918
O 2.479160 0.462985 3.284018
O 4.121520 1.893176 1.880168
O 5.831040 3.504415 0.701261
O 5.318537 -0.171884 3.322254
O 6.215629 0.642119 0.782539
Si 1.401866 3.878123 4.254663
Si 2.498306 4.873011 1.711453
Si 4.018271 1.040003 3.222256
Si 5.114712 2.034891 0.679045
V 0.664606 0.603051 3.774324
V 5.851971 5.309963 1.159384
