12

O 1.585973 2.166480 2.545759
O 4.192302 3.469644 3.848924
O 1.585973 4.423626 3.298142
O 1.585973 2.166480 4.673818
O 4.380841 3.727194 6.279620
O 4.380841 5.984340 4.903944
O 1.774513 4.681176 5.728838
O 4.380841 5.984340 7.032002
Ti 2.983407 1.491704 3.927645
Ti 2.983407 4.075410 2.352939
Ti 0.000000 2.583706 3.297177
Ti 2.983407 4.075410 4.788881
