18

O 0.314080 5.303827 4.127302
O 1.220724 6.116571 1.590839
O 0.696635 2.438845 4.235379
O 2.415556 4.035057 3.053239
O 4.061821 5.455502 1.650689
O 2.287311 3.920094 0.537077
O 4.294405 1.979959 4.371170
O 2.519896 0.444552 3.257557
O 4.166161 1.864997 1.855008
O 5.885081 3.461208 0.672868
O 5.360992 -0.216517 3.317408
O 6.267637 0.596227 0.780945
Si 1.413193 3.920756 4.251090
Si 2.501579 4.896418 1.711062
Si 4.080138 1.003636 3.197184
Si 5.168523 1.979298 0.657157
Ti 0.726819 0.651543 3.763759
Ti 5.854898 5.248511 1.144488
