14

Mg 2.262177 3.770296 0.195469
Mg 3.770295 2.262178 -1.945668
Ti 0.000000 0.000000 2.141137
Ti 0.000000 3.016236 -1.508118
Ti 3.016236 0.000000 0.633018
Ti 0.000000 0.000000 0.000000
O 4.579032 4.673822 -2.407661
O 4.564464 1.453440 1.195692
O 1.358651 1.453440 2.798598
O 1.453440 1.358652 0.657462
O 1.453440 4.564465 -0.945444
O 1.468008 4.579033 -2.945891
O 4.579032 1.468009 -0.804755
O 4.673821 4.579033 -4.548797
