12

O 1.720998 4.564673 5.602089
O 4.285911 5.850445 6.884522
O 4.282895 3.622723 6.144563
O 4.292642 5.847965 4.794615
O 1.547064 2.103884 2.485792
O 4.111983 3.389644 3.768227
O 1.540333 2.106349 4.575703
O 1.550080 4.331596 3.225757
Mn 2.916496 3.977164 4.685157
Mn 5.832981 5.429581 6.149231
Mn 2.916490 3.977166 2.304341
Mn 2.916485 6.501904 5.525425
