34

Ni 0.000644 -0.000611 4.532960
Ni -0.000126 3.338356 10.250034
P 1.932798 0.924091 10.497274
P 5.530518 -0.744039 7.971884
P 7.396251 1.280953 8.053797
P 1.866857 4.231274 7.097522
P 5.464629 2.563221 4.572202
P 3.567813 0.547378 4.191764
P 3.829674 2.939855 10.877658
P 0.001073 2.206244 7.015571
O 3.503130 1.510555 10.485255
O 7.020891 -0.820642 11.886306
O 0.376455 4.307836 3.183148
O 0.811882 1.919865 1.883927
O 0.629247 5.172738 7.455094
O 1.468869 3.888405 5.489525
O 0.344342 0.898813 6.376901
O 1.564022 2.989694 7.330522
O 2.749207 0.209061 2.569331
O 3.688886 4.463265 7.733901
O 3.894312 1.976671 4.584181
O 2.407002 0.338730 4.789233
O 2.221327 3.650953 10.489073
O 6.088698 3.483376 5.918935
O 1.308626 0.003901 9.150562
O 6.768121 -1.685400 7.614281
O 4.990499 3.148431 10.280174
O 6.585634 1.567543 13.185540
O 3.708378 -0.976050 7.335499
O 4.648258 3.278208 12.500127
O 5.833184 0.497754 7.738986
O 7.053100 2.588460 8.692407
O 5.928351 -0.401164 9.579901
O 5.176174 -0.163659 4.580344
