14

O 4.393002 4.529280 -2.063390
O 4.479072 1.430858 1.718599
O 1.294580 1.430858 3.310845
O 1.430858 1.294580 0.953740
O 1.430858 4.479072 -0.638506
O 1.344787 4.393002 -2.828249
O 4.393002 1.344787 -0.471144
O 4.529280 4.393002 -4.420495
Mg 2.183947 3.639912 0.623728
Mg 3.639912 2.183947 -1.733377
Mn 0.000000 0.000000 2.357105
Mn 0.000000 2.911930 -1.455965
Mn 2.911930 -0.000000 0.901140
Mn 0.000000 0.000000 0.000000
