14

V 1.697863 5.195390 2.231972
V 4.069884 0.514238 1.763520
V 7.465611 0.514238 1.763520
V 9.837631 5.195390 2.231972
O 0.000000 0.152681 0.015281
O 1.559011 3.511079 2.063420
O 2.094096 5.702537 0.570668
O 3.673651 0.007080 0.000709
O 4.208737 2.198549 1.932072
O 5.767747 5.556947 0.556097
O 7.326758 2.198549 1.932072
O 9.976484 3.511079 2.063420
O 7.861843 0.007080 0.000709
O 9.441399 5.702537 0.570668
