20

Ni 4.240482 0.896269 0.989675
Ni 2.372718 5.915516 2.548343
P 2.580115 2.308345 3.163540
P 4.032708 4.503674 0.374643
P 0.956495 1.422503 0.990565
P 5.656229 5.389516 2.548249
O 4.044624 2.895344 0.125685
O 5.963836 4.113385 3.512966
O 0.646586 2.698178 0.026029
O 0.331665 5.773849 2.401155
O 1.330237 2.043096 2.278151
O 2.308282 1.528242 4.427269
O 2.180801 0.536203 0.613514
O 2.569977 3.916650 3.412537
O 5.281944 4.770158 1.260335
O 3.858864 1.804628 2.562060
O 6.281773 1.036622 1.137418
O 4.432286 6.277023 2.924804
O 4.304983 5.283661 -0.889117
O 2.753350 5.006618 0.975631
