12

O 4.282363 5.849817 4.791977
O 4.282363 5.849817 6.873928
O 1.549478 2.116621 4.569117
O 1.549478 4.324864 3.223252
O 1.549478 2.116621 2.487171
O 4.099331 3.391547 3.762098
O 4.282369 3.641572 6.137853
O 1.732510 4.574890 5.599006
Cu 2.915912 3.983219 4.680547
Cu 2.915923 1.457962 3.838798
Cu 0.000006 2.525267 3.222594
Cu 2.915912 3.983219 2.299710
