30

Mg 0.475226 5.804697 -0.527974
Mg 5.856161 -0.134861 6.231857
Mo 1.430348 2.570260 9.610305
Mo 1.445167 2.573050 3.074919
Mo 2.680766 3.406932 7.203101
Mo 2.962489 4.882169 9.406255
Mo 2.694259 3.400033 0.701071
Mo 2.953837 4.935050 2.893087
Mo 3.575231 1.236796 8.601371
Mo 3.874325 2.700956 10.774603
Mo 3.607748 1.183754 2.038878
Mo 3.877034 2.714145 4.241368
Mo 5.121430 3.536325 8.379702
Mo 5.105378 3.530006 1.861102
S 0.882488 4.679413 8.309653
S 0.858801 4.716840 1.803229
S 1.781919 3.934071 11.479052
S 1.413024 1.313800 7.590638
S 1.802103 3.937038 4.934160
S 1.410420 1.321584 1.056984
S 2.462592 0.709300 10.869968
S 2.498428 0.723502 4.296139
S 4.065033 5.406603 7.119842
S 4.066023 5.397345 0.626184
S 5.148108 4.807188 10.383216
S 4.783976 2.182316 6.496620
S 5.148862 4.807285 3.863641
S 4.759961 2.176028 -0.010327
S 5.670497 1.445385 9.667572
S 5.687736 1.419338 3.138444
