40

Co 4.715446 0.641975 3.787459
Co 4.715446 3.710457 8.240089
Co 2.247890 4.994408 3.562440
Co 2.247890 8.062890 8.015070
P 3.638280 6.191570 6.244307
P 0.627473 2.178758 2.435553
P 6.335863 6.531191 4.914346
P 0.627473 2.173674 6.888183
P 3.638280 6.865727 1.791677
P 6.335863 6.526107 9.366976
P 3.325056 1.839138 10.010852
P 3.325056 2.513295 5.558222
O 3.454643 1.130248 4.875070
O 1.787078 1.826272 1.515715
O 6.170922 2.351811 8.946092
O 0.901132 0.764096 7.414146
O 3.508693 7.574617 6.927459
O 5.176258 6.878593 10.286814
O 4.437142 1.792332 2.292657
O 3.588569 8.001590 2.741239
O 6.062204 5.116528 8.841013
O 2.526194 6.144764 5.057242
O 3.454643 3.222184 9.327700
O 6.287489 7.599051 8.319270
O 3.508693 5.482681 2.474829
O 0.792414 6.353054 2.856437
O 3.374767 3.649158 4.608660
O 2.526194 6.912533 9.509871
O 6.062204 7.940770 4.388383
O 6.170922 2.000622 4.493462
O 0.675847 1.105814 3.483258
O 3.588569 5.055707 7.193869
O 1.787078 2.526161 5.968345
O 4.437142 2.560101 6.745287
O 3.374767 0.703275 9.061290
O 0.901132 3.588337 2.961516
O 5.176258 6.178705 5.834184
O 6.287489 5.458246 3.866641
O 0.792414 6.704243 7.309067
O 0.675847 3.246619 7.935888
