32

Mg 4.479978 8.723868 1.912301
Mg 3.286184 5.278495 8.133103
Mg 10.660662 8.138842 4.594520
Mg 9.466868 4.693470 10.815322
Mo 1.946171 4.704994 3.532503
Mo 0.870227 4.435909 5.417280
Mo 4.439616 3.717739 5.658451
Mo 2.546513 6.437193 4.026180
Mo 6.086920 5.724258 4.235197
Mo 5.017908 5.462133 6.126572
Mo 8.928938 7.955205 6.601051
Mo 7.859926 7.693079 8.492425
Mo 11.400333 6.980145 8.701443
Mo 9.507230 9.699599 7.069172
Mo 13.076619 8.981429 7.310342
Mo 12.000675 8.712344 9.195120
Se 1.441462 1.528837 3.330705
Se 0.495085 2.727997 4.978746
Se 5.282563 3.953280 3.758267
Se 3.709680 6.692151 2.139725
Se 3.264036 3.503050 7.505415
Se 1.482103 6.137300 5.868260
Se 8.398414 4.794173 6.296350
Se 6.505716 7.459319 4.676357
Se 7.441131 5.958018 8.051266
Se 5.548432 8.623165 6.431272
Se 12.464743 7.280038 6.859363
Se 10.682810 9.914287 5.222208
Se 10.237166 6.725186 10.587898
Se 8.664283 9.464057 8.969356
Se 13.451761 10.689341 7.748877
Se 12.505384 11.888501 9.396918
