16

Cr 1.257897 5.976861 3.050827
Cr 1.522539 1.643604 0.381692
Cr 4.038332 5.976861 4.956579
Cr 4.302974 1.643604 2.287444
O 1.222507 2.887249 4.772094
O 0.451026 1.692137 1.767630
O 1.518996 4.652202 2.206216
O 1.261439 0.318945 4.875352
O 2.329410 6.025394 4.436765
O 1.557928 7.220506 2.102958
O 4.002943 2.887249 3.235312
O 3.231461 1.692137 0.901506
O 4.299432 4.652202 0.462919
O 4.041874 0.318945 3.132054
O 5.109845 6.025394 3.570641
O 4.338363 7.220506 0.566177
