24

V 1.843206 7.392532 5.163544
V 0.775170 2.537265 7.805544
V 4.461581 7.173268 1.897809
V 3.393546 2.318001 4.539809
F 0.173855 8.327073 1.365952
F 0.345521 8.361818 4.800823
F 0.876271 6.016685 4.496326
F 0.239875 3.774805 6.607503
F 0.235612 6.811754 7.180154
F 2.963896 6.203982 1.535088
F 2.444521 3.471807 3.485725
F 3.494646 8.549114 1.230591
F 2.858250 1.080462 3.341768
F 2.853988 7.754045 3.914418
F 2.382764 1.956488 5.788935
F 2.378501 8.630071 6.361585
F 1.742105 1.161419 8.472762
F 2.792231 6.238726 6.217628
F 2.272855 3.506551 8.168266
F 5.001139 2.898779 2.523199
F 4.996877 5.935728 3.095850
F 4.360480 3.693848 5.207027
F 4.891230 1.348715 4.902530
F 5.062896 1.383460 8.337402
