14

Mg 2.129483 3.549139 0.506135
Mg 3.549138 2.129484 -1.724162
Ni 0.000000 0.000000 2.230297
Ni 0.000000 2.839311 -1.419655
Ni 2.839311 0.000000 0.810641
Ni 0.000000 0.000000 0.000000
O 4.320005 4.465884 -2.066754
O 4.343816 1.358616 1.513484
O 1.212738 1.358616 3.079023
O 1.358616 1.212738 0.848726
O 1.358616 4.343817 -0.716813
O 1.334805 4.320006 -2.731511
O 4.320005 1.334806 -0.501215
O 4.465884 4.320006 -4.297051
