34

P 2.166441 0.974348 10.452022
P 5.583209 -0.456892 8.155027
P 7.605694 1.574875 8.230152
P 2.059752 4.425557 7.145083
P 5.476643 2.994281 4.848117
P 3.603548 0.737420 4.220971
P 4.039505 3.231222 11.079154
P 0.037260 2.393771 7.069965
W 7.642999 -3.044613 8.234008
W 0.000008 3.506625 1.281340
O 3.770471 1.784579 10.680028
O 7.275249 -0.441231 12.050989
O 0.367728 4.409841 3.249138
O 0.931591 1.946948 1.844351
O 0.835824 5.404542 7.551938
O 1.399236 4.059059 5.508767
O 0.333120 1.061830 6.450768
O 1.615296 3.168981 7.385864
O 2.898985 0.326871 2.652612
O 3.801754 4.630388 7.676110
O 3.872597 2.184071 4.620091
O 2.335107 0.498117 4.758647
O 2.444593 3.888402 10.626867
O 5.908816 3.916370 6.106309
O 1.734214 0.052288 9.193825
O 6.807145 -1.435853 7.748177
O 5.307893 3.470560 10.541448
O 6.711500 2.021700 13.455808
O 3.841184 -0.661735 7.623972
O 4.744122 3.641756 12.647496
O 6.027627 0.799713 7.914313
O 7.309871 2.906843 8.849338
O 6.243687 -0.090422 9.791355
O 5.198445 0.080232 4.673272
