48

V 0.664106 3.860947 9.919558
V 0.664106 0.379336 4.049840
V 3.843283 0.787768 1.521878
V 5.734636 8.101230 7.567930
V 2.555459 7.692797 10.095892
V 2.555459 5.028051 4.226173
V 3.843283 3.452514 7.391597
V 5.734636 4.619618 1.698212
Cu 4.966377 1.464254 10.153064
Cu 2.384229 0.471087 7.319824
Cu 4.014513 8.009478 4.297946
Cu 1.432365 7.016311 1.464706
Cu 4.966377 2.776028 4.283345
Cu 2.384229 3.769196 1.450106
Cu 1.432365 5.704537 7.334425
Cu 4.014513 4.711370 10.167664
O 0.246902 2.042375 4.487870
O 4.166746 0.067870 6.893470
O 1.322537 5.111593 5.401478
O 5.076205 0.871310 0.346574
O 0.246902 2.197908 10.357589
O 6.151840 6.438191 7.129900
O 0.568093 0.766872 7.127257
O 3.174960 7.626250 1.522612
O 3.174960 5.094598 7.392330
O 2.000503 7.391033 8.325019
O 4.398239 3.150751 9.162469
O 3.223782 0.854315 10.095158
O 5.830649 7.713693 4.490513
O 5.580516 4.442527 3.400179
O 2.682218 2.272596 6.984257
O 2.682218 1.967686 1.114538
O 0.818226 0.202245 2.347872
O 3.223782 3.385967 4.225440
O 0.818226 4.038038 8.217591
O 5.076205 3.368972 6.216292
O 4.166746 4.172413 1.023752
O 4.398239 1.089532 3.292751
O 6.151840 6.282657 1.260181
O 0.568093 3.473411 1.257539
O 1.322537 7.609255 11.271197
O 3.716524 6.512871 10.503232
O 2.231996 8.412695 4.724300
O 2.231996 4.308153 10.594018
O 5.830649 5.007155 10.360231
O 3.716524 6.207977 4.633514
O 2.000503 5.329815 2.455301
O 5.580516 8.278321 9.269898
