36

Ti 2.959947 4.045631 9.409148
Ti 0.086526 2.658556 10.049166
Ti 3.108058 4.231140 12.029836
Ti 2.952213 1.606153 6.975125
Ti 3.008039 4.110915 14.424130
Ti 0.148568 2.638097 5.209835
Ti 3.098802 4.249249 16.974890
Ti 3.020100 1.582557 11.890151
Ti 2.990532 4.086744 19.350238
Ti 2.995340 1.568942 16.816311
Ti 0.074633 2.635940 14.981233
Ti 5.286097 7.217929 26.596275
O 1.449719 1.980604 4.964010
O 1.449840 4.402896 7.380570
O 1.580365 2.159096 7.245803
O 4.239594 3.376317 9.131870
O 1.553499 2.128496 9.984158
O 1.822868 4.713796 10.160556
O 4.516461 6.168439 11.882721
O 4.398953 3.768379 11.780116
O 1.558151 4.436798 12.299230
O 1.607712 2.195509 12.170410
O 4.222207 3.460501 13.975968
O 4.399826 6.000919 14.013775
O 1.584927 2.171335 14.973875
O 1.790603 4.717814 15.071959
O 4.404731 6.022699 16.827326
O 4.396949 3.756333 16.714150
O 1.588357 2.166607 17.094253
O 1.584662 4.408133 17.216467
O 4.169565 3.462286 18.841354
O 4.403623 6.025673 18.977408
O 1.516444 4.766419 19.630033
O 4.630081 3.624126 21.583718
O 4.355525 5.953582 21.751972
O 4.626229 6.319000 24.276818
