14

Mg 2.661593 4.435989 0.446541
Mg 4.435988 2.661594 -2.217013
V 0.000000 0.000000 2.663554
V 0.000000 3.548791 -1.774395
V 3.548790 0.000000 0.889158
V 0.000000 0.000000 0.000000
S 5.462433 5.561375 -2.639324
S 5.282885 1.635149 1.659066
S 1.536207 1.635148 3.532405
S 1.635148 1.536208 0.868851
S 1.635148 5.282886 -1.004488
S 1.814695 5.462434 -3.429539
S 5.462433 1.814696 -0.765985
S 5.561373 5.462434 -5.302878
