48

Cr 0.898431 2.519294 14.263319
Cr 1.914912 3.324254 8.604011
Cr 4.032207 8.819778 3.277675
Cr 2.465319 5.669536 1.809087
Cr 3.015726 8.014817 8.936983
Cr 3.343801 8.327215 6.017246
Cr 1.586837 3.011857 11.523748
Cr 0.000000 0.000000 6.961411
P 0.277033 5.203965 12.729187
P 3.771391 5.571666 10.979201
P 4.653605 6.135107 4.811807
P 0.991009 8.618351 3.204026
P 2.543844 1.900494 6.324756
P 2.386794 9.438577 11.216238
P 1.159247 5.767406 6.561793
P 3.939629 2.720720 14.336968
O 3.525746 5.179907 3.536323
O 4.180727 10.286224 16.062605
O 3.966042 9.836931 11.294309
O 3.695927 4.496211 9.836927
O 0.988006 4.007752 1.696693
O 2.776132 4.892373 11.748727
O 2.944138 3.260698 14.943765
O 4.465664 9.967009 5.139159
O 1.234711 6.842861 7.704067
O 3.444470 6.837004 10.363506
O 4.249179 7.542699 4.774893
O 3.015874 2.790052 5.358290
O 0.749911 1.052848 1.478389
O 0.424770 3.509685 9.503695
O 1.404892 6.159165 14.004671
O 0.681459 3.796373 12.766102
O 4.828411 8.133197 13.802396
O 1.986500 8.078374 2.597229
O 1.912259 1.937363 9.991416
O 1.914764 8.549019 12.182704
O 4.505868 7.829387 8.037299
O 1.725985 8.813617 9.603520
O 0.464974 1.372063 12.401836
O 1.630103 8.756235 4.790729
O 1.486168 4.502068 7.177474
O 0.964596 1.502140 6.246686
O 0.102227 3.205875 3.738598
O 3.204653 2.525454 7.937474
O 3.942632 7.331320 15.844301
O 3.300535 2.582837 12.750265
O 2.154506 6.446699 5.792267
O 3.018384 9.401712 7.549581
