80

V 5.595356 8.644935 12.869909
V 2.796697 6.367637 0.057820
V 2.796697 0.947097 7.445441
V 3.762900 2.117477 14.948702
V 3.326221 7.494415 10.522844
V 3.233376 6.411239 3.019582
V 3.233376 0.990699 4.483679
V 3.326221 2.073876 11.986940
V 3.762900 7.538017 7.561081
V 5.738545 3.159102 2.081060
V 0.821052 -0.094527 9.584321
V 0.821052 5.326013 12.925463
V 0.964241 5.260719 5.366648
V 5.595356 3.224396 9.639875
V 0.964241 -0.159821 2.136614
V 5.738545 8.579641 5.422202
Co 4.178286 -0.678650 10.164398
Co 2.381311 3.743225 2.661137
Co 2.381311 9.163765 4.842125
Co 4.178286 4.741889 12.345386
Co 6.488176 0.378689 11.309906
Co 0.071421 2.685886 3.806645
Co 0.071421 8.106426 3.696617
Co 6.488176 5.799228 11.199878
O 5.039515 8.633703 14.396027
O 1.520082 5.271951 6.892766
O 1.520082 -0.148588 0.610495
O 5.039515 3.213163 8.113757
O 6.516704 7.060641 12.460756
O 0.042893 6.845013 4.957495
O 0.042893 1.424474 2.545767
O 6.516704 1.640101 10.049028
O 6.508248 -0.861683 12.621386
O 0.051349 3.926258 5.118125
O 0.051349 9.346797 2.385137
O 6.508248 4.558857 9.888398
O 4.278563 8.746853 4.484654
O 2.281034 5.158801 11.987916
O 2.281034 -0.261739 10.521868
O 4.278563 3.326314 3.018607
O 6.557708 -0.914864 5.183973
O 0.001889 3.979439 12.687235
O 0.001889 9.399979 9.822549
O 6.557708 4.505675 2.319303
O 0.400385 9.440502 4.983936
O 2.530450 8.173866 6.354272
O 6.159212 4.465152 12.487198
O 0.400385 4.019962 2.519325
O 4.587421 6.158324 7.018070
O 1.972176 7.747330 14.521332
O 1.972176 2.326790 7.988452
O 4.587421 0.737785 0.485191
O 5.140684 8.583219 7.053321
O 1.418913 5.322435 14.556582
O 1.418913 -0.098105 7.953202
O 5.140684 3.162679 0.449941
O 2.881946 1.362839 13.480344
O 3.677651 1.701736 5.977083
O 3.677651 7.122275 1.526178
O 2.881946 6.783379 9.029440
O 4.542422 0.685540 11.277087
O 2.017174 2.379035 3.773825
O 2.017174 7.799575 3.729436
O 4.542422 6.106079 11.232697
O 4.227221 3.461556 10.917215
O 2.332376 -0.396981 3.413954
O 2.332376 5.023559 4.089307
O 4.227221 8.882095 11.592569
O 1.829039 2.368432 11.156704
O 4.730558 0.696143 3.653443
O 4.730558 6.116672 3.849818
O 1.829039 7.788982 11.353080
O 3.825583 3.260640 13.247668
O 2.734014 -0.196065 5.744407
O 2.734014 5.224474 1.758854
O 3.825583 8.681180 9.262116
O 2.530450 2.753327 1.148989
O 4.029147 0.311248 8.652251
O 4.029147 5.731788 13.857533
O 6.159212 -0.955387 10.022586
