36

Fe 2.918928 3.994055 9.257923
Fe 0.007507 2.573014 9.655427
Fe 2.958195 4.078521 11.772412
Fe 2.939874 1.486326 6.941157
Fe 3.025753 4.043651 14.228252
Fe 0.034378 2.558567 4.868227
Fe 3.041642 4.042894 16.640707
Fe 3.010907 1.483163 11.807370
Fe 2.990740 4.057907 19.039511
Fe 2.993592 1.475250 16.627166
Fe 0.001851 2.580225 14.492517
Fe 5.250005 7.115387 26.038100
O 1.427368 1.958916 4.895907
O 1.499792 4.313277 7.135139
O 1.497012 2.176489 7.182622
O 4.172236 3.316057 9.079833
O 1.514470 2.202317 9.747125
O 1.782385 4.712478 9.759201
O 4.474145 5.976173 11.597717
O 4.324122 3.744825 11.632491
O 1.642775 4.455948 11.958781
O 1.563905 2.113463 11.856115
O 4.228621 3.461767 13.877751
O 4.380034 5.957103 13.713039
O 1.676829 2.263182 14.714563
O 1.826319 4.614562 14.618342
O 4.438635 5.997530 16.546309
O 4.364612 3.666534 16.470631
O 1.574761 2.199665 16.791717
O 1.704300 4.457746 16.755222
O 4.223534 3.525459 18.583125
O 4.476140 5.891847 18.634154
O 1.570357 4.708155 19.134058
O 4.597285 3.604604 21.299135
O 4.391902 5.876480 21.276778
O 4.599130 6.215675 23.716860
