56

Mg 4.705318 6.887214 10.900523
Mg 4.706579 4.237135 3.875602
Mg 1.568435 0.533873 3.153755
Mg 1.568260 3.191417 10.178270
Cr 4.707157 2.641123 12.407564
Cr 1.570725 4.786678 1.646182
Cr 1.569019 6.350768 8.675324
Cr 4.704333 1.072480 5.380781
Ni 3.143327 0.011681 -0.003616
Ni 3.138470 3.713964 7.027245
Ni -0.004957 3.705878 7.021068
Ni 6.273195 -0.004750 0.006908
P 1.568354 2.619779 13.096747
P 4.706121 4.806358 0.957350
P 4.706172 6.332703 7.983528
P 1.568511 1.093873 6.072943
P 4.705569 2.847687 9.778787
P 1.568862 4.579743 4.276448
P 1.567808 6.557146 11.307371
P 4.705281 0.871375 2.750028
O 0.240804 4.528810 5.072707
O 3.378289 2.900095 8.981967
O 6.033132 0.822235 1.953638
O 2.896016 6.604440 12.103662
O 6.032404 2.900179 8.981376
O 2.896449 4.527781 5.073085
O 0.239850 6.603873 12.103564
O 3.378045 0.823369 1.953021
O 1.568605 2.486425 6.704885
O 4.706109 4.941666 7.349240
O 4.703317 6.201733 0.332176
O 1.566396 1.224100 13.721906
O 4.708048 1.091471 13.263866
O 1.570305 6.337117 0.792016
O 1.566572 4.801169 7.819796
O 4.703304 2.623751 6.232726
O 4.705990 1.542410 10.679646
O 1.569903 5.885094 3.375926
O 1.568586 5.253022 10.405480
O 4.705971 2.174869 3.650865
O 2.745720 0.915580 5.081552
O 5.884078 6.511902 8.974288
O 3.527883 4.620201 1.946414
O 0.390454 2.805425 12.107583
O 3.528347 6.511946 8.974639
O 0.390278 0.914399 5.082759
O 2.746774 2.804422 12.108258
O 5.884178 4.623632 1.947357
O 4.705205 7.183475 3.845507
O 1.568398 0.244044 10.211359
O 1.567469 3.463050 3.185612
O 4.705023 3.964573 10.870143
O 4.705707 7.371642 6.869137
O 1.570249 0.056441 7.189063
O 1.569307 3.651165 0.165928
O 4.708612 3.774052 13.889531
