48

Cr 2.837034 4.025426 11.538360
Cr 2.803699 4.018953 13.994909
Cr 2.836981 1.611051 8.327734
Cr 0.742045 1.001515 12.416437
Cr 2.899893 4.097624 16.442824
Cr 4.982531 7.187153 20.395575
Cr 0.743822 1.063074 17.110109
Cr 2.899905 1.548299 13.052793
Cr 2.918549 4.131910 21.195953
Cr 5.099198 7.230698 25.271727
Cr 2.918566 1.560327 17.776371
Cr 2.874304 1.632970 22.488862
Cr 2.874229 4.102454 25.772656
Cr 5.080211 7.228465 29.966148
Cr 2.860497 4.067183 9.333947
Cr 4.970675 7.171860 34.552100
O 1.721350 2.216847 6.417821
O 1.686279 2.169186 8.526084
O 1.721402 4.542429 9.510409
O 4.166670 3.546897 11.569622
O 1.496319 4.631838 11.710185
O 1.684863 2.186527 11.104304
O 4.177632 3.553937 13.944076
O 1.575337 2.040611 13.146083
O 1.684758 4.507621 14.190790
O 4.165578 6.123681 14.980666
O 4.124045 3.513132 16.244734
O 4.177574 6.122970 17.360251
O 1.468495 1.959137 15.212137
O 1.454153 4.671785 16.348365
O 4.391660 3.469056 18.766092
O 1.589296 2.110123 17.853986
O 1.468448 4.719022 18.882096
O 4.209973 6.119272 19.772111
O 4.313634 3.558895 21.229610
O 4.391735 6.327912 22.567711
O 1.527098 4.698670 21.166786
O 1.478761 1.945029 19.861694
O 4.365601 3.517065 23.496687
O 1.643307 2.272481 22.575292
O 1.478720 4.808706 23.669699
O 4.274801 6.185853 24.558146
O 4.348623 3.590399 25.988863
O 4.365496 6.296907 27.193241
O 1.524845 4.670165 25.900135
O 4.165642 3.560936 28.051356
O 4.227311 6.178279 29.212736
O 4.165671 6.170857 31.522037
