76

Mg 2.550725 2.767605 -1.659876
Mg 3.780970 6.042688 -3.912539
Mg 1.320480 1.995006 1.486716
Mg 7.652175 -1.194096 -0.084581
Mg 7.652175 3.639863 1.642188
Mg 6.421930 0.364780 3.894852
Mg 8.882421 4.412463 -1.504404
Mg 2.550725 7.601565 0.066893
V 5.101450 3.203734 -0.008844
V 5.101450 3.203734 -4.152592
V 5.101450 -1.630225 2.408136
V 5.101450 -1.630225 -1.735613
V 0.000000 0.000000 4.143749
V 0.000000 4.833959 -2.416980
V 0.000000 0.000000 0.000000
V 0.000000 4.833959 1.726769
Si 7.652175 6.006231 -5.800004
Si 3.817793 1.196961 2.665571
Si 6.376813 1.587688 -1.910376
Si 1.283657 6.840732 3.196103
Si 1.275363 8.051872 -2.591743
Si 8.927538 -1.644404 2.574056
Si 7.652175 1.172272 0.760724
Si 3.826088 4.819780 1.892689
Si 2.550725 5.235197 -0.778412
Si 6.385108 5.210507 -2.683258
Si 8.919243 -0.433264 -3.213791
Si 2.550725 0.401237 5.782317
O 7.131348 4.367406 -5.112897
O 7.014086 -1.171587 5.270991
O 6.347765 4.728922 -1.299339
O 5.221100 4.204984 1.123171
O 0.986610 8.313151 -1.300017
O 4.003873 -0.494157 5.496147
O 1.097577 9.148064 0.585657
O 6.198456 1.918296 -3.264492
O 5.279919 2.106676 3.029470
O 9.105895 6.644653 -1.280241
O 4.272669 -0.325352 3.206583
O 8.238913 2.314498 -1.926842
O 10.024431 4.470037 0.003770
O 0.828782 6.563576 2.012299
O 7.065437 -1.322961 2.964975
O 1.129043 5.654126 0.115684
O 8.290265 5.095211 -3.185469
O 3.972407 6.586144 -1.040271
O 4.114840 6.491969 1.291628
O 8.173003 5.875179 1.168149
O 8.098073 1.460805 1.943329
O 8.956585 0.901940 -4.292784
O 10.083251 3.472751 -5.984117
O 7.206278 2.700224 0.226990
O 3.071553 2.040062 5.095210
O 3.188814 7.579055 -5.288679
O 3.855135 1.678546 1.281651
O 4.981801 2.202484 -1.140859
O 9.216290 -1.905683 1.282329
O 6.199027 6.901625 -5.513834
O 9.105323 -2.740596 -0.603345
O 4.004444 4.489173 3.246804
O 4.922981 4.300792 -3.047158
O 1.097006 -0.237185 1.262554
O 5.930232 6.732821 -3.224270
O 1.963987 4.092970 1.909154
O 0.178469 1.937431 -0.021458
O 9.374119 -0.156107 -2.029987
O 3.137463 7.730429 -2.982662
O 9.073858 0.753342 -0.133372
O 1.912636 1.312257 3.167782
O 6.230493 -0.178675 1.022583
O 6.088060 -0.084501 -1.309316
O 2.029898 0.532289 -1.185837
O 2.104828 4.946663 -1.961016
O 1.246315 5.505528 4.275096
O 0.119649 2.934717 5.966430
O 2.996622 3.707244 -0.244677
