28

Mg 2.223282 2.248310 3.683221
Mg 0.741102 6.921647 6.875080
Mg 2.223270 6.832674 1.595860
Mg 0.741102 2.336641 8.962557
V 0.741111 3.772437 1.086808
V 2.223270 0.812303 6.367270
V 0.741123 8.357480 4.191062
V 2.223258 5.396924 9.471800
V 2.223285 5.172774 4.033624
V 0.741084 3.996898 6.524962
V 2.223282 0.588071 1.245467
V 0.741108 8.581364 9.312982
O 0.741093 8.340672 0.773501
O 2.223294 0.828680 9.784927
O 0.741093 3.755886 4.504448
O 2.223282 5.413943 6.054181
O 0.741096 0.289804 7.557845
O 2.223294 8.879814 3.000572
O 0.741087 4.873654 8.281840
O 2.223291 4.295624 2.276863
O 0.741093 5.737215 0.363271
O 2.223285 3.432035 10.195326
O 0.741096 1.152622 4.915984
O 2.223294 8.017206 5.642370
O 2.223282 7.275784 8.609678
O 0.741099 1.893632 1.948760
O 0.741096 6.478207 3.330453
O 2.223282 2.691438 7.228007
