48

Co 2.824873 3.832376 11.145897
Co 2.837665 3.828741 13.542084
Co 2.824691 1.448165 7.921256
Co 0.755933 0.933972 12.113561
Co 2.846128 3.842300 15.847240
Co 4.945897 6.746132 19.607983
Co 0.745265 0.959585 16.698308
Co 2.846384 6.306797 19.180481
Co 2.869342 3.868874 20.476514
Co 4.950732 6.785664 24.210120
Co 2.869370 1.420848 17.165732
Co 2.836155 1.461622 21.747217
Co 2.836161 3.870581 25.005301
Co 4.961035 6.801393 28.829187
Co 2.822618 3.843768 8.899855
Co 4.905551 6.745568 33.393021
O 1.682360 2.070088 6.135596
O 1.653724 2.062045 8.180115
O 1.683687 4.288913 9.137311
O 4.065852 3.299164 10.944367
O 1.579394 4.413374 11.455349
O 1.678909 2.057065 10.777977
O 4.012259 3.330361 13.234267
O 1.573750 1.970527 12.726992
O 1.680002 4.247197 13.739737
O 4.062674 5.719532 14.284786
O 4.019578 3.260494 15.512144
O 4.013643 5.707950 16.449940
O 1.542739 1.852644 14.979872
O 1.574867 4.503701 16.013994
O 4.189577 3.353701 17.946436
O 1.609933 2.025784 17.363396
O 1.542893 4.388065 18.408918
O 4.090393 5.712872 18.940906
O 4.123967 3.278124 20.264396
O 4.188119 5.880579 21.362320
O 1.599784 4.473626 20.679586
O 1.516575 1.881821 19.544418
O 4.189076 3.357882 22.544582
O 1.631467 2.112476 21.961663
O 1.516775 4.413572 22.968503
O 4.119280 5.732020 23.584481
O 4.166414 3.287659 24.932747
O 4.189144 5.898438 25.980387
O 1.582538 4.436098 25.288397
O 3.999263 3.347794 27.015222
O 4.074509 5.750436 28.125207
O 4.000533 5.760345 30.278638
