26

V 3.094732 4.516899 2.914476
V 1.926718 7.160895 3.975964
V 3.094732 2.914467 8.222391
V 1.926718 0.270463 7.160895
V 3.094732 8.222391 1.331951
V 3.094732 1.331960 4.516899
V 1.926718 3.975964 5.578379
V 1.926718 5.578379 0.270463
O 2.510717 6.369641 2.123214
O 2.510717 2.123222 6.369641
O 0.331968 5.688310 0.120734
O 0.331968 4.125701 5.688302
O 0.331968 0.120734 7.050980
O 0.331968 7.050980 4.125693
O 4.689482 2.804553 8.372120
O 4.689482 4.367153 2.804553
O 4.689482 8.372120 1.441874
O 4.689482 1.441874 4.367153
O 2.444023 0.315187 3.026250
O 2.444023 1.220168 0.315195
O 2.444023 3.026250 3.931240
O 2.444023 3.931240 1.220177
O 2.577417 4.561614 7.272677
O 2.577417 7.272677 8.177668
O 2.577417 5.466604 4.561614
O 2.577417 8.177659 5.466604
