20

Mg 4.016288 2.857078 6.232919
Mg 1.338768 5.401708 2.120718
Mn 1.338757 1.106274 6.353927
Mn 4.016283 7.152520 1.999699
Si 1.281533 1.778763 2.957307
Si 1.395987 4.513159 5.730252
Si 3.959059 3.745624 2.623375
Si 4.073518 6.480022 5.396322
O 2.631408 2.887296 3.326473
O 0.046118 4.154077 4.622494
O 2.723649 5.371496 5.027157
O 5.308928 4.104706 3.731133
O 0.660910 1.170469 4.290702
O 2.016616 3.173547 6.316538
O 4.694142 7.088315 4.062927
O 3.338430 5.085229 2.037089
O 4.506854 2.821733 1.554608
O 3.525723 7.533251 6.337617
O 1.829323 0.725532 2.016010
O 0.848203 5.437053 6.799022
