44

Mg 3.586274 8.272816 9.290466
Mg 0.703718 2.757605 5.638598
Mg 2.178838 2.757605 0.662243
Mg 5.061394 8.272816 4.314111
Mo 1.745912 0.218457 3.256098
Mo 4.628468 10.811963 1.720256
Mo 4.019200 5.733668 6.696611
Mo 1.136644 5.296753 8.232453
Mo 1.675174 8.272816 2.033358
Mo 4.557725 2.757605 2.942996
Mo 4.089944 2.757605 7.919351
Mo 1.207382 8.272816 7.009713
Mo 4.628468 5.733668 1.720256
Mo 1.745912 5.296753 3.256098
Mo 1.136644 0.218457 8.232453
Mo 4.019200 10.811963 6.696611
O 5.451236 1.295335 7.189976
O 2.568680 9.735085 7.739087
O 0.313876 6.810546 2.762733
O 3.196432 4.219875 2.213622
O 0.313876 9.735085 2.762733
O 3.196432 1.295335 2.213622
O 5.451236 4.219875 7.189976
O 2.568680 6.810546 7.739087
O 2.765657 1.287548 7.422412
O 5.648213 9.742873 7.506652
O 2.999455 6.802758 2.530297
O 0.116899 4.227662 2.446057
O 2.999455 9.742873 2.530297
O 0.116899 1.287548 2.446057
O 2.765657 4.227662 7.422412
O 5.648213 6.802758 7.506652
O 1.129974 8.272816 5.171388
O 4.012530 2.757605 9.757676
O 4.635139 2.757605 4.781321
O 1.752583 8.272816 0.195033
O 1.325434 4.399472 9.818477
O 4.207990 6.630948 5.110587
O 4.439678 9.914683 0.134232
O 1.557122 1.115738 4.842122
O 4.439678 6.630948 0.134232
O 1.557122 4.399472 4.842122
O 1.325434 1.115738 9.818477
O 4.207990 9.914683 5.110587
