20

Mg 0.058866 0.176513 1.982246
Mg 2.593731 2.889182 1.964993
Mg 5.246334 5.248819 5.912233
Mg 2.711459 2.536150 5.929486
W 2.652598 0.000000 -0.001789
W 0.000005 2.712658 3.949029
W 2.652598 0.000000 3.947232
W 0.000000 2.712658 0.000000
O 3.543133 1.746082 3.384732
O 4.414660 4.458750 0.558930
O 1.762057 3.679245 4.509748
O 0.890541 0.966576 7.335550
O 0.888068 0.963489 4.497527
O 1.764529 3.676147 7.347771
O 4.417132 4.461837 3.396953
O 3.540661 1.749179 0.546708
O 0.674243 2.195933 1.973436
O 1.978360 4.908602 1.973796
O 3.326840 0.516724 5.920683
O 4.630958 3.229393 5.921044
