19

Cu 3.333133 2.034101 -2.683198
Cu -0.000033 3.143187 1.147875
Cu 3.333193 -1.109094 1.610599
Sn 3.333146 2.034166 0.037772
Sn 6.666179 0.925107 -3.793404
Sn 0.000027 0.000035 2.720913
Sn 3.333153 -1.109106 -1.110237
O 5.517319 0.197887 -2.032946
O 1.148960 3.870349 2.108295
O 5.517319 2.416787 -1.222598
O 2.154062 2.401214 -1.337193
O 3.306875 -0.014298 0.114315
O 1.003488 4.866454 -1.177409
O 4.512231 3.840340 -3.235548
O 3.359418 4.082523 -0.038961
O 1.148960 1.651443 1.297945
O 4.512224 1.667027 1.412558
O 5.662818 -0.798220 1.252757
O 2.154048 0.227896 3.310913
