12

V 1.572874 2.047525 2.388641
V 3.737558 2.416605 5.117726
V 3.737558 5.128293 3.450355
V 3.737558 5.128293 6.010774
O 2.352878 3.069020 3.580970
O 2.352878 3.069020 5.996442
O 2.352878 5.627203 4.423463
O 5.057591 4.512918 5.043289
O 2.364636 5.628051 6.838377
O 4.860501 4.587332 7.412133
O 4.860501 6.966704 5.949102
O 4.860501 6.966704 8.195738
