12

Ni 1.499276 1.975380 2.308085
Ni 3.546809 2.393597 4.929898
Ni 3.546809 4.908151 3.385885
Ni 3.546809 4.908151 5.759612
O 2.309702 3.015415 3.520360
O 2.309702 3.015415 5.745066
O 2.309702 5.372113 4.297987
O 4.848786 4.353053 4.871407
O 2.315484 5.451626 6.623185
O 4.772318 4.502337 7.172818
O 4.772318 6.727562 5.806467
O 4.772318 6.727562 7.907064
