48

V 2.862328 3.979228 11.647813
V 2.712197 4.007019 14.065683
V 2.898711 1.627372 8.353150
V 0.746322 1.024559 12.588129
V 2.988163 4.166614 16.804415
V 5.039279 7.291443 20.711091
V 0.768916 1.074874 17.395003
V 2.990337 6.746670 20.312812
V 2.965893 4.191051 21.528610
V 5.186135 7.339207 25.691017
V 2.964273 1.590362 17.991252
V 2.986932 1.655928 22.812533
V 2.858176 4.069765 26.076252
V 5.178425 7.308304 30.470701
V 2.855873 4.171066 9.554659
V 5.039232 7.274128 35.085397
O 1.718575 2.164325 6.468446
O 1.678853 2.275681 8.713775
O 1.684218 4.603103 9.578254
O 4.239139 3.603907 11.727450
O 1.595125 4.680941 12.059071
O 1.674877 2.271585 11.258547
O 4.266139 3.620621 14.156149
O 1.587993 2.060012 13.328341
O 1.674753 4.561032 14.368049
O 4.187283 6.203653 15.144577
O 4.152184 3.617751 16.382386
O 4.217051 6.277690 17.662182
O 1.486065 1.949959 15.387129
O 1.562565 4.793839 16.766420
O 4.490309 3.569516 19.043491
O 1.596086 2.127814 18.099259
O 1.484663 4.814080 19.282666
O 4.300366 6.244639 20.115715
O 4.333780 3.599648 21.447272
O 4.488312 6.442510 22.947969
O 1.577797 4.765901 21.593416
O 1.479981 1.970533 20.143096
O 4.450345 3.516603 23.763479
O 1.686627 2.402357 23.029953
O 1.485853 4.863747 24.096870
O 4.348665 6.286030 24.964408
O 4.415075 3.657754 26.377323
O 4.451682 6.433672 27.717522
O 1.568072 4.702610 26.360575
O 4.212204 3.599648 28.436967
O 4.270451 6.200321 29.601939
O 4.240665 6.260054 32.055396
