12

Sb 5.508113 3.296107 2.504317
Sb 2.766329 -0.956380 2.251932
F 1.843300 -0.206327 0.726863
F 3.652163 3.511702 1.770051
F 3.297117 2.770865 -0.366228
F 4.809511 -0.536198 -1.912963
F 4.248670 2.187115 -3.111697
F 0.826044 3.499216 1.356776
F 1.244247 1.117544 5.631968
F 4.713617 -0.213000 1.111432
F 0.647917 3.840733 4.421006
F 2.249048 0.529165 2.828947
