13

Mg 3.722381 5.225519 6.121803
V 3.722388 8.156954 7.239572
V 7.444754 7.519581 8.415880
V 3.722381 5.225514 3.411831
V 0.000000 0.000000 0.000000
S 5.639555 4.981587 8.155561
S 1.805198 2.534160 5.682347
S 1.805198 5.469442 4.088043
S 5.532448 4.831233 5.265900
S 1.927612 2.706007 3.170143
S 5.517149 7.745026 9.073472
S 1.912313 5.619800 6.977715
S 5.639563 7.916873 6.561268
