20

Mg 3.951224 2.805926 6.063426
Mg 1.317080 5.224615 2.235523
Co 1.317069 1.000416 6.277284
Co 3.951219 7.030133 2.021655
Si 1.315278 1.724221 2.956626
Si 1.318866 4.354704 5.695962
Si 3.949428 3.675834 2.602978
Si 3.953021 6.306318 5.342315
O 2.633349 2.845887 3.343251
O 0.000801 3.999170 4.576295
O 2.634955 5.184661 4.955692
O -0.000806 2.484281 2.175558
O 0.692528 1.060746 4.267290
O 1.941621 3.022354 6.294919
O 4.575770 6.969794 4.031652
O 3.326673 5.008178 2.004021
O 4.487031 2.724712 1.548910
O 3.415417 7.314527 6.341755
O 1.852876 0.716011 1.957185
O 0.781273 5.305829 6.750033
