22

Mg 5.641130 2.742781 2.746999
Mg 0.911398 4.705385 7.179788
Ti 4.219598 1.279883 5.816572
Ti 2.332929 6.168283 4.110215
P 0.929889 1.605087 5.332519
P 5.622638 5.843079 4.594269
P 4.048767 4.726182 6.629707
P 2.503760 2.721984 3.297081
O 5.017126 4.637692 5.443400
O 1.535401 2.810474 4.483388
O 6.451205 1.573312 5.811561
O 0.101322 5.874854 4.115226
O 3.942629 2.343331 3.750927
O 2.609898 5.104835 6.175861
O 2.427737 4.280322 2.863861
O 4.124790 3.167844 7.062920
O 6.179426 4.922168 3.543145
O 0.373101 2.525998 6.383642
O 4.432837 6.787511 4.238552
O 2.119690 0.660655 5.688236
O 1.778127 1.577342 2.452418
O 4.774401 5.870824 7.474369
