76

Mg 2.531240 2.708738 -1.613265
Mg 3.764602 5.909876 -3.830515
Mg 1.297878 1.955657 1.498727
Mg 7.593719 -1.300948 -0.020891
Mg 7.593719 3.473478 1.724115
Mg 6.360358 0.272339 3.941365
Mg 8.827081 4.226558 -1.387877
Mg 2.531240 7.483163 0.131741
Cr 5.062480 3.091108 0.055425
Cr 5.062480 3.091108 -4.076794
Cr 5.062480 -1.683318 2.442638
Cr 5.062480 -1.683318 -1.689581
Cr 0.000000 0.000000 4.132219
Cr 0.000000 4.774426 -2.387213
Cr 0.000000 0.000000 0.000000
Cr 0.000000 4.774426 1.745006
Si 7.593719 5.831041 -5.678656
Si 3.797680 1.124452 2.704877
Si 6.328099 1.476672 -1.836276
Si 1.264800 6.741082 3.227773
Si 1.265620 7.934415 -2.533908
Si 8.859339 -1.752200 2.644758
Si 7.593719 1.056616 0.840775
Si 3.796860 4.705544 1.947126
Si 2.531240 5.125600 -0.729925
Si 6.327279 5.057764 -2.594027
Si 8.860159 -0.558866 -3.116923
Si 2.531240 0.351174 5.789506
O 7.083634 4.203899 -4.999537
O 6.955007 -1.272118 5.318002
O 6.294373 4.587644 -1.203798
O 5.193628 4.081917 1.175722
O 0.962954 8.194243 -1.234601
O 4.001283 -0.529303 5.501550
O 1.061197 9.010326 0.656047
O 6.159306 1.818241 -3.200553
O 5.259349 2.024832 3.062757
O 9.028132 6.423233 -1.142521
O 4.212985 -0.400039 3.252643
O 8.196337 2.172760 -1.840550
O 9.928089 4.260035 0.143477
O 0.849494 6.479603 2.027261
O 6.991102 -1.416439 3.026163
O 1.103256 5.569383 0.151670
O 8.232432 4.905346 -3.080900
O 3.959224 6.447533 -0.966168
O 4.099525 6.366840 1.349979
O 8.103805 5.692467 1.261310
O 8.017398 1.307414 2.042441
O 8.893065 0.776924 -4.190765
O 9.993811 3.270282 -5.843826
O 7.170040 2.575993 0.286099
O 3.041325 1.978316 5.110387
O 3.169953 7.454334 -5.207152
O 3.830586 1.594572 1.314648
O 4.931331 2.100298 -1.064872
O 9.162005 -2.012028 1.345451
O 6.123677 6.711518 -5.390700
O 9.063762 -2.828111 -0.545197
O 3.965653 4.363975 3.311403
O 4.865610 4.157384 -2.951907
O 1.096827 -0.241018 1.253371
O 5.911974 6.582254 -3.141793
O 1.928622 4.009456 1.951400
O 0.196870 1.922180 -0.032627
O 9.275465 -0.297387 -1.916410
O 3.133857 7.598654 -2.915313
O 9.021703 0.612833 -0.040820
O 1.892527 1.276870 3.191750
O 6.165736 -0.265317 1.077018
O 6.025434 -0.184624 -1.239129
O 2.021154 0.489748 -1.150460
O 2.107561 4.874802 -1.931591
O 1.231894 5.405291 4.301615
O 0.131149 2.911933 5.954676
O 2.954919 3.606222 -0.175249
