36

Co 2.799332 3.845061 8.986617
Co 0.010953 2.464538 9.450886
Co 2.843103 3.891938 11.366352
Co 2.799502 1.444302 6.569548
Co 2.835114 3.887104 13.684092
Co 0.055104 2.448045 4.871266
Co 2.842565 3.909003 16.010367
Co 2.835544 1.434480 11.209118
Co 2.834320 3.883574 18.314962
Co 2.835397 1.441591 15.843940
Co 0.021985 2.468377 14.087976
Co 4.962547 6.795473 25.094431
O 1.375601 1.887217 4.700123
O 1.371794 4.158988 6.987628
O 1.464657 2.027969 6.818222
O 3.987971 3.208402 8.613958
O 1.503131 2.061369 9.438759
O 1.701878 4.446193 9.597367
O 4.205349 5.760558 11.261129
O 4.170247 3.548254 11.135640
O 1.507754 4.224108 11.619201
O 1.500547 2.051571 11.485604
O 4.006635 3.321312 13.180401
O 4.167958 5.687954 13.296488
O 1.500649 2.064593 14.063071
O 1.662799 4.451008 14.201579
O 4.173375 5.724687 15.892419
O 4.157254 3.548944 15.764088
O 1.501369 2.061180 16.110636
O 1.500360 4.234559 16.260886
O 3.997303 3.321139 17.817972
O 4.161799 5.705455 17.933685
O 1.575822 4.523333 18.670951
O 4.298728 3.522782 20.367229
O 4.171375 5.714244 20.532190
O 4.296632 5.894600 22.750064
