48

Ta 0.579998 3.812465 10.217470
Ta 0.579998 0.686762 4.352140
Ta 3.951956 0.941967 1.457081
Ta 5.922004 8.311691 7.004455
Ta 2.550046 8.056486 9.899513
Ta 2.550046 5.441194 4.034183
Ta 3.951956 3.557259 7.322412
Ta 5.922004 5.185988 1.139125
Cu 5.343073 1.021846 10.132720
Cu 2.422783 0.391703 7.020060
Cu 4.079220 8.606750 4.336534
Cu 1.158930 7.976607 1.223874
Cu 5.343073 3.477380 4.267390
Cu 2.422783 4.107524 1.154730
Cu 1.158930 5.521073 7.089205
Cu 4.079220 4.890929 10.201865
O 0.449282 2.569202 4.336527
O 4.151977 8.865609 6.652145
O 1.223098 5.889487 5.298746
O 5.278904 1.390261 0.192519
O 0.449282 1.930024 10.201857
O 6.052721 6.429251 7.020068
O 0.654225 0.677907 6.612192
O 2.975628 8.364278 1.179818
O 2.975628 5.133401 7.045148
O 1.806412 7.953562 8.129721
O 4.695590 3.454335 9.092204
O 3.526374 0.634175 10.176777
O 5.847778 8.320546 4.744403
O 5.734006 4.637056 2.901375
O 2.726537 2.238140 7.182135
O 2.726537 2.261086 1.316804
O 0.767997 0.137829 2.589889
O 3.526374 3.865052 4.311446
O 0.767997 4.361397 8.455220
O 5.278904 3.108966 6.057849
O 4.151977 4.632071 0.786815
O 4.695590 1.044891 3.226874
O 6.052721 7.068429 1.154737
O 0.654225 3.821319 0.746862
O 1.223098 7.608192 11.164076
O 3.775466 6.737367 10.039791
O 2.350025 0.132844 4.704449
O 2.350025 4.366382 10.569780
O 5.847778 5.177134 10.609733
O 3.775466 6.760313 4.174460
O 1.806412 5.544118 2.264390
O 5.734006 8.860624 8.766705
