13

Mg 3.560798 4.956606 5.819161
Fe 3.560806 7.879500 6.881698
Fe 7.121590 6.990295 7.852865
Fe 3.560798 4.956600 3.096226
Fe 0.000000 0.000000 0.000000
S 5.438236 4.649444 7.825664
S 1.683353 2.343219 5.471727
S 1.683353 5.263759 3.812657
S 5.241267 4.375271 4.783046
S 1.869626 2.602509 3.055401
S 5.251971 7.310698 8.582930
S 1.880329 5.537936 6.855284
S 5.438244 7.569988 6.166604
