12

Cr 5.336466 3.273837 2.145250
Cr 2.676227 -0.895204 1.977387
F 1.756210 -0.197138 0.619684
F 3.569609 3.478345 1.518537
F 3.155389 2.790127 -0.423810
F 4.676363 -0.529546 -2.057425
F 4.161821 2.238859 -3.157499
F 0.881029 3.433893 1.236297
F 1.158593 1.043681 5.318103
F 4.480705 -0.169436 0.877957
F 0.612827 3.810389 4.210286
F 2.213460 0.487952 2.532204
