14

Mg 1.506498 2.322609 3.788952
Mg 4.267405 1.293646 -1.116201
Bi -0.004000 0.015236 -0.034836
Bi 2.855157 4.521874 0.217138
F 2.370209 0.129366 0.439535
F 3.390104 3.485037 2.243005
F 3.384269 2.698563 -0.389504
F 4.852657 -0.283444 -1.623129
F 4.514018 2.218172 -2.962502
F 0.538726 3.591306 1.459284
F 1.379684 1.405771 5.622524
F 5.205403 -0.052828 1.348129
F 0.925657 3.914494 4.268522
F 2.373723 0.908704 3.074428
