13

Mg 1.029118 1.426383 2.052412
Fe 1.906922 2.197959 5.195301
Fe 0.451373 3.851549 2.144137
Fe 2.531595 4.717251 7.764788
Fe 1.077608 6.244116 4.816854
O 2.579224 6.074340 6.367933
O 1.380827 3.037532 6.498261
O 1.617094 5.426866 3.445290
O 0.437010 2.390875 3.501544
O 0.520794 0.343514 5.002503
O 2.379264 3.481491 2.204684
O 2.525701 8.242974 4.635028
O 0.656167 4.740229 7.804130
