12

Mn 1.573533 2.002534 2.356069
Mn 3.753581 2.386985 4.999848
Mn 3.753581 4.989821 3.448609
Mn 3.753581 4.989821 5.893301
O 2.486922 3.087159 3.623937
O 2.486922 3.087159 5.851058
O 2.486922 5.458354 4.437877
O 5.031483 4.369030 4.924818
O 2.494842 5.577693 6.816981
O 4.936910 4.505015 7.287760
O 4.936910 6.821557 5.907150
O 4.936910 6.821557 8.082939
