14

Mg 0.916424 1.546961 2.227519
Mg 1.939423 7.132539 8.166843
Ni 1.751136 2.286809 5.352759
Ni 0.440582 3.931647 2.451985
Ni 2.418439 4.749441 7.943004
Ni 1.107859 6.390569 5.041010
O 2.466162 6.257505 6.683041
O 1.268776 3.100493 6.737243
O 1.591969 5.577577 3.661257
O 0.392357 2.423166 3.711533
O 0.386825 0.298250 5.248092
O 2.223587 3.658498 2.456057
O 2.470594 8.375850 5.141322
O 0.631388 5.019768 7.935892
