28

Cr 0.160815 2.936988 5.296251
Cr 3.557361 3.596398 1.599782
Cr 3.878776 0.331401 2.107211
Cr 7.273961 6.203915 5.810845
As 4.685999 1.671861 6.794556
As 6.467624 4.862182 3.094427
As 0.967607 1.595566 0.610493
As 2.749380 4.937794 4.313014
O 6.399956 5.234303 6.690909
O 4.753993 1.297942 2.988877
O 2.681058 4.564841 0.717826
O 1.034546 1.967729 4.416676
O 6.365784 1.444783 6.097904
O 4.787095 5.088939 2.397011
O 2.648150 1.822367 1.308631
O 1.068576 4.711092 5.008515
O 3.552186 1.972271 5.655046
O 0.165894 4.562678 1.951685
O 7.269218 1.297290 1.753079
O 3.882643 5.238399 5.452932
O 4.546359 0.227929 0.385333
O 6.606966 6.305532 4.088437
O 0.828643 3.038822 7.017970
O 2.889214 3.494290 3.321107
O 4.957859 2.968297 0.574175
O 6.194321 3.565072 4.275700
O 1.240128 0.298737 6.830295
O 2.477937 6.234774 3.131958
