28

Mg 4.190985 1.449202 7.901635
Mg 0.826826 4.352735 2.635961
Mg 2.644453 1.449432 2.634634
Mg 2.375858 4.352515 7.903101
Ti 2.678431 4.351563 5.132943
Ti 2.681072 4.353419 0.144246
Ti 2.340816 1.450385 5.405707
Ti 2.338316 1.448523 10.394446
Ti 0.001792 2.900772 5.266251
Ti 5.019659 5.801907 0.010982
Ti 0.001772 0.001502 5.262917
Ti 5.019644 2.899694 0.007633
O 4.332812 4.351619 4.027587
O 4.335563 4.348872 1.259624
O 0.684221 1.450335 6.517882
O 0.684543 1.453075 9.280395
O 0.943494 4.352825 6.308344
O 0.942310 4.353754 9.493041
O 4.077103 1.449110 4.228002
O 4.077344 1.448181 1.044978
O 3.313334 2.908383 6.504228
O 3.313073 5.797158 9.298376
O 1.706169 0.006310 4.028470
O 1.706114 2.892874 1.239795
O 1.706299 2.895195 4.030909
O 1.706726 0.004952 1.239337
O 3.313500 5.794012 6.506599
O 3.313691 2.908871 9.297908
