72

Mn 0.568388 7.961376 9.198066
Mn 2.025415 3.160177 6.388655
Mn 8.182634 -2.254146 1.190768
Mn 3.807123 3.519734 4.003649
Mn 3.402108 6.768492 4.141893
Mn 2.350096 -0.306562 1.194238
Mn 0.973402 4.712618 9.336310
Mn 6.725606 2.547054 4.000179
Mn 7.859231 1.209319 6.384396
Mn 7.777619 0.994612 1.052524
Mn 6.400926 6.013792 9.194596
Mn 0.891790 4.497912 4.004438
Mn 3.483720 6.983199 9.198855
Mn 4.943898 2.187496 6.385185
Mn 5.267301 -1.275969 1.189979
Mn 5.348913 -1.061262 6.246941
Mn 3.890547 3.737054 9.335905
Mn 1.942132 2.942353 1.054435
Mn 6.317643 5.795968 4.139981
Mn 8.266058 -2.036826 6.247346
Mn 0.484964 7.744056 4.141488
Mn 6.808890 2.764878 9.334398
Mn 2.433379 -0.088738 6.248852
Mn 4.860475 1.970176 1.052929
O 3.987832 -0.319688 4.996198
O 0.971363 4.709847 5.929022
O 7.137167 -0.691051 1.547022
O 3.075739 1.598567 6.741574
O 4.763190 6.026919 5.392636
O 6.470400 1.879425 2.207565
O 1.613855 6.398282 8.841812
O 3.404147 6.771263 0.734605
O 8.363343 2.533927 0.198219
O 2.280621 3.827805 8.181269
O 6.317126 5.799738 0.727842
O 7.927034 5.704291 2.983403
O 6.220550 1.226652 10.189576
O 0.823987 0.002940 7.405431
O 2.530472 4.480578 0.199258
O 4.218010 0.285581 1.546087
O 0.387679 3.173304 10.190615
O 5.199498 2.856555 8.177820
O 1.299772 1.255048 1.547157
O 3.890853 3.738375 5.925552
O 8.113939 1.879616 8.179202
O 2.094890 7.653305 2.986852
O 6.905983 -1.293302 4.995159
O 7.779658 0.997383 4.459812
O 8.266364 -2.035505 9.657699
O 7.451250 4.452182 8.841677
O 1.072534 0.654440 4.997133
O 5.346874 -1.064033 9.654229
O 4.533012 5.421649 8.842747
O 1.941615 2.946123 4.466575
O 5.448045 3.508055 0.197284
O 0.157501 2.568034 6.740504
O 6.656132 -1.946075 7.401982
O 4.860169 1.968855 4.463282
O 2.761656 5.082829 3.647395
O 8.593521 3.139196 3.648330
O 6.809406 2.761108 5.922259
O 5.012594 6.681230 2.984785
O 3.302977 2.199175 10.191550
O 7.678488 5.052791 5.391701
O 1.845039 7.000532 5.393675
O 0.484658 7.742735 0.731135
O 5.675283 4.108663 3.647260
O 5.989366 0.624402 6.741439
O 2.433895 -0.092507 9.660992
O 0.637083 3.827615 2.209632
O 3.551523 2.850676 2.211014
O 3.738428 -0.973999 7.404049
