14

Mg 0.971648 1.515162 2.121113
Mg 1.927935 7.263574 8.298886
Ti 1.827963 2.249509 5.357655
Ti 0.429319 4.031466 2.357772
Ti 2.468152 4.746132 8.072131
Ti 1.069078 6.529485 5.072524
O 2.463170 6.327815 6.812704
O 1.352923 3.100880 6.659983
O 1.544665 5.653602 3.788236
O 0.437831 2.436828 3.612631
O 0.480552 7.676574 6.610632
O 2.291340 3.649891 2.281886
O 2.422141 8.585809 5.155841
O 0.604364 5.135571 8.149037
