36

V 2.943279 4.012403 9.357492
V 0.031714 2.664548 9.831013
V 3.111676 4.161213 11.952162
V 2.923746 1.578293 6.908558
V 3.017413 4.167012 14.299426
V 0.155922 2.631516 5.163056
V 3.046113 4.096954 16.681315
V 3.004354 1.522755 11.668694
V 3.022863 4.112315 18.999497
V 2.936421 1.504044 16.456616
V 0.040508 2.574601 14.621953
V 5.270528 7.180089 26.210355
O 1.408365 1.915134 4.870812
O 1.404864 4.409437 7.354279
O 1.544063 2.115924 7.147120
O 4.262416 3.351009 9.171149
O 1.616201 2.248558 9.880743
O 1.842118 4.684188 10.104189
O 4.498638 6.125165 11.890781
O 4.375898 3.732522 11.703396
O 1.673757 4.493295 12.165615
O 1.620538 2.250234 11.967067
O 4.216740 3.496006 13.716112
O 4.381174 5.951693 13.934745
O 1.615647 2.212065 14.664136
O 1.824661 4.798885 14.872844
O 4.432348 6.017131 16.641547
O 4.386997 3.776449 16.461565
O 1.642151 2.249889 16.874016
O 1.708250 4.515019 16.989855
O 4.250926 3.566222 18.614851
O 4.480995 6.075569 18.784901
O 1.376237 4.659771 19.156997
O 4.598099 3.483047 21.197925
O 4.279476 5.850019 21.387788
O 4.586783 6.253710 23.969473
