56

Mg 5.384684 6.190117 12.285253
Mg 5.384684 3.705731 4.237297
Mg 1.794902 2.891494 11.858615
Mg 1.794902 0.407115 3.810659
Bi 5.384684 2.714471 14.222766
Bi 1.794902 3.882761 1.873146
Bi 1.794902 6.013087 9.921101
Bi 5.384684 0.584152 6.174810
Bi 3.589789 0.000000 0.000000
Bi 3.589789 3.298616 8.047956
Bi 0.000000 3.298616 8.047956
Bi 0.000000 0.000000 0.000000
P 1.794902 2.879012 14.725779
P 5.384684 3.718220 1.370148
P 5.384684 6.177628 9.418088
P 1.794902 0.419610 6.677823
P 5.384684 2.902234 11.209338
P 5.384684 0.396381 3.161382
P 1.794902 6.200850 12.934530
P 1.794902 3.694991 4.886574
O 0.489439 3.743639 5.705003
O 4.079221 2.853586 10.390909
O 6.690139 0.445023 2.342953
O 3.100350 6.152209 13.752958
O 6.690139 2.853586 10.390909
O 3.100350 3.743639 5.705003
O 0.489439 6.152209 13.752958
O 4.079221 0.445023 2.342953
O 1.794902 1.619027 7.721901
O 5.384684 4.978212 8.374011
O 5.384684 4.917636 0.326039
O 1.794902 1.679596 15.769857
O 5.384684 0.588064 14.697177
O 1.794902 6.009168 1.398719
O 1.794902 3.886680 9.446674
O 5.384684 2.710558 6.649237
O 5.384684 1.657040 12.201763
O 1.794902 4.940192 3.894164
O 1.794902 4.955656 11.942104
O 5.384684 1.641583 4.153791
O 3.016342 0.512875 5.729501
O 6.606131 6.084356 10.366411
O 4.163236 3.811485 2.318455
O 0.573447 2.785741 13.777456
O 4.163236 6.084356 10.366411
O 0.573447 0.512875 5.729501
O 3.016342 2.785741 13.777456
O 6.606131 3.811485 2.318455
O 5.384684 2.428804 0.524984
O 1.794902 0.836945 11.960791
O 1.794902 2.461665 3.912836
O 5.384684 4.135561 12.183076
O 5.384684 0.869812 8.572940
O 1.794902 5.727420 7.522972
O 1.794902 4.168421 15.570911
O 5.384684 5.760287 4.135120
