16

Mg 1.046250 1.196578 2.607324
Mg 1.992610 8.342037 7.164920
Mg 0.202166 6.094941 0.879520
Mg 2.803347 3.426303 8.877578
Mn 1.818372 2.611717 5.828863
Mn 0.488170 3.590771 2.188442
Mn 2.497723 5.922594 7.560845
Mn 1.171167 6.904002 3.920861
O 2.506409 7.200364 5.927565
O 1.231845 3.737885 7.278604
O 1.770837 5.782092 2.477582
O 0.484088 2.314758 3.821824
O 0.273546 0.663650 6.342624
O 2.504723 3.093042 2.345673
O 2.764483 8.874265 3.428195
O 0.509836 6.430700 7.415025
