20

Mg 4.968243 0.314881 1.841960
Mg 2.456806 2.299669 5.529038
Mg 2.566299 2.929208 1.842442
Mg 0.054777 4.913871 5.529534
Cr 2.511513 0.000146 -0.000248
Cr 0.000010 2.614345 0.000464
Cr 0.000075 2.614230 3.685914
Cr 2.511543 5.228731 3.686159
O 4.403171 2.903434 5.528683
O 1.891684 4.939971 1.843165
O 3.131406 0.288922 5.528233
O 0.619899 2.325364 1.842922
O 3.430632 1.638810 3.212048
O 0.919089 0.975695 4.159097
O 4.103735 4.252497 0.474151
O 1.592192 3.590841 6.897929
O 3.430853 1.638052 0.473558
O 0.919325 0.976422 6.897314
O 1.592434 3.590052 4.159498
O 4.104077 4.253088 3.212493
