18

Si 0.622615 5.565895 0.403760
Si 5.757686 6.451457 4.679946
Si 5.755762 7.578603 1.970326
Si 0.622864 4.437997 3.113650
Ni 3.189457 8.639051 0.780324
Ni 3.190550 3.379030 4.304766
O 4.980584 6.731714 3.282809
O 1.311974 6.993760 0.196091
O 1.755658 2.806718 0.802179
O 1.397223 5.281126 1.799795
O 5.071650 5.024071 4.889571
O 4.622986 9.210662 4.283338
O 5.066792 8.465848 1.724586
O 4.623235 10.278562 1.585394
O 4.983032 6.688947 0.803727
O 1.397179 5.328719 4.279340
O 1.756879 1.740599 3.497998
O 1.307941 3.548563 3.363674
