18

Mg 2.031908 0.830160 9.896050
Mg 2.032326 5.517042 1.054997
Mg 2.032509 4.003634 6.530876
Mg 2.031883 2.343397 4.420082
Bi 0.000033 1.179394 6.820550
Bi 4.063872 5.167681 4.130563
Bi 0.000057 1.994099 1.344578
Bi 4.063856 4.353071 9.606535
O 4.063795 3.173646 5.475096
O 0.000240 1.449657 3.406652
O 4.063620 4.623271 2.068508
O 0.000191 1.723937 8.882572
O 2.032005 1.191974 1.063947
O 2.031875 5.155215 9.887121
O 4.063514 4.897570 7.544504
O 2.031981 1.981500 6.539944
O 4.063848 -0.000019 -0.001042
O 2.031875 4.365505 4.410950
