52

Mg 4.573353 0.562250 11.026321
Mg 2.059732 3.507834 10.978368
Mg 0.453890 7.577918 1.091269
Mg 2.967511 4.632334 1.139221
Mg 0.000000 0.000000 0.000000
Mg 2.513622 4.070084 6.058795
Ti 0.344995 2.850239 0.607855
Ti 4.682248 5.289929 11.509734
Ti 2.858616 1.219845 5.450939
Ti 2.168627 6.920323 6.666650
Ti 2.513622 4.070084 -1.914152
Ti 0.000000 0.000000 7.972947
As 2.524631 7.329261 9.971980
As 4.962276 2.361870 13.164445
As 2.448654 1.708214 8.840245
As 2.578589 6.431954 3.277345
As 2.502612 0.810907 2.145610
As 0.064967 5.778298 -1.046855
As 5.016233 3.259177 3.913185
As 0.011010 4.880991 8.204405
O 0.349202 4.417653 9.928449
O 3.479943 2.143860 6.572951
O 0.641371 1.820972 11.829819
O 0.569959 6.585453 7.844166
O 4.385872 6.319196 0.287770
O 2.164419 0.347569 3.869654
O 3.154992 2.249112 10.174870
O 3.972176 7.629364 2.498505
O 4.109208 4.419395 4.519660
O 4.678041 3.722515 2.189140
O 1.943663 2.515369 1.785371
O 1.055067 0.510804 9.619085
O 1.041303 4.122515 12.644794
O 0.918035 3.720773 7.597930
O 4.104613 1.011758 1.430520
O 1.590992 3.058326 4.628275
O 3.554924 8.087737 5.531590
O 1.872251 5.891056 1.942720
O 1.595587 7.790857 -2.289170
O 1.458554 4.580888 -0.268015
O 3.436251 5.081842 7.489315
O 0.922630 7.128410 10.687070
O 1.547300 5.996308 5.544638
O 0.966322 1.926224 -0.514157
O 3.985940 4.017653 -0.527205
O 2.862824 7.792599 8.247935
O 4.457284 1.554715 4.273424
O 3.431656 0.349311 14.406759
O 4.060921 6.213944 12.631746
O 3.568689 3.559280 12.385605
O 1.472319 0.052431 6.585999
O 3.083580 5.624799 10.332218
