56

Mg 0.802215 1.047307 3.066884
Mg 0.016339 2.621459 5.994770
Mg 0.794756 1.033776 7.994977
Mg 6.050790 5.658373 23.013760
Mg 0.003584 2.629513 15.835066
Mg 3.026902 4.142454 19.424808
Mg 0.024385 2.635091 20.794020
Mg 3.040360 4.155763 24.368841
V 3.005913 4.122496 11.970496
V 2.985542 4.118799 14.445672
V 3.005913 1.536889 8.520013
V 0.775420 1.018303 12.906819
V 3.022077 4.134298 16.936397
V 5.255779 7.247710 20.988447
V 0.792238 1.031771 17.855674
V 3.022077 1.530499 13.461637
V 3.031521 4.152018 21.894645
V 5.267475 7.276662 25.921401
V 3.031521 1.524289 18.387950
V 3.017688 1.531545 23.313757
V 3.017688 4.139796 26.794459
V 5.277591 7.270207 30.871301
V 3.009885 4.120784 9.548492
V 5.255240 7.240672 35.786405
O 1.633215 2.155926 6.319315
O 1.600191 2.147992 8.564334
O 1.633215 4.592681 9.571155
O 4.402288 3.556997 11.887735
O 1.613692 4.724407 12.113667
O 1.632471 2.164100 11.260473
O 4.431395 3.677297 14.479354
O 1.555495 2.109096 13.451880
O 1.632471 4.584800 14.490888
O 4.472047 6.154771 15.507550
O 4.373241 3.539478 16.786506
O 4.431395 6.143989 17.771144
O 1.576624 2.119662 16.075834
O 1.635819 4.751845 17.062686
O 4.471890 3.680372 19.427902
O 1.630649 2.141223 18.475742
O 1.576624 4.603118 19.389996
O 4.479433 6.166749 20.443459
O 4.418210 3.554701 21.775488
O 4.471890 6.190204 22.777263
O 1.632126 4.734707 21.998238
O 1.595736 2.096471 21.006044
O 4.481963 3.683115 24.388206
O 1.620726 2.166718 23.379017
O 1.595736 4.624569 24.379780
O 4.430838 6.157118 25.309419
O 4.445198 3.559893 26.743683
O 4.481963 6.176503 27.715624
O 1.620714 4.717590 26.922557
O 4.434107 3.672101 29.272340
O 4.476963 6.158484 30.307624
O 4.434107 6.148044 32.576476
