28

Mg 4.371524 1.494173 7.740891
Mg 0.857682 4.447826 2.586209
Mg 2.662811 1.487664 2.583028
Mg 2.496973 4.452883 7.744342
V 2.678546 4.451338 5.017260
V 2.669861 4.451871 0.156409
V 2.503676 1.488239 5.313370
V 2.496435 1.488899 10.167035
V 0.002945 2.965970 5.155536
V 5.171482 5.939690 0.020601
V 0.002174 -0.000315 5.147668
V 5.169707 2.977363 0.018361
O 4.456298 4.457110 4.034395
O 4.446738 4.456526 1.143529
O 0.723150 1.482698 6.280008
O 0.716281 1.486555 9.199257
O 1.020456 4.446174 6.156188
O 1.012728 4.447586 9.331587
O 4.154024 1.497584 4.164501
O 4.145488 1.491327 1.003433
O 3.436107 2.998354 6.349036
O 3.430708 5.920367 9.142093
O 1.746276 0.016690 3.971178
O 1.740417 2.947833 1.193517
O 1.751261 2.943600 3.980538
O 1.740272 0.020110 1.183498
O 3.434735 5.923850 6.350242
O 3.426842 2.994586 9.139832
