12

Mg 1.080802 1.300405 1.141079
Mg 4.477505 3.734396 -2.740463
V 0.011162 2.561398 -1.628256
V 2.779372 5.084549 -5.014319
F 5.112996 1.993020 -3.227699
F 4.195095 0.138732 1.046445
F 0.447403 3.042179 1.628548
F 1.250153 0.144176 2.662638
F 1.363521 4.895360 -2.644844
F 2.311610 2.108988 -1.775021
F 4.307256 4.889956 -4.261767
F 3.247428 2.924692 0.176074
