48

Bi 2.868762 4.852074 12.954011
Bi 3.646164 4.859999 16.922318
Bi 2.872191 2.001556 8.925731
Bi 0.783117 1.563827 14.180048
Bi 4.801077 5.124306 21.294737
Bi 4.930871 8.220126 22.749981
Bi 5.336920 5.380506 30.252773
Bi 4.824237 8.045837 25.426797
Bi 3.011555 4.902211 24.203984
Bi 0.873361 4.449565 18.405500
Bi 3.039661 2.012504 20.133523
Bi 1.521862 1.760320 23.452394
Bi 1.552570 4.644648 27.568833
Bi 5.257579 8.241005 34.193411
Bi 2.612658 4.909910 31.800961
Bi 3.310675 2.271662 28.640512
O 1.727508 2.636400 6.790163
O 1.506187 2.660705 9.236136
O 1.724739 5.581261 10.948040
O 4.130870 4.377962 12.395725
O 1.573166 5.433544 13.490079
O 3.425485 2.582457 14.597059
O 4.417756 4.381890 15.441232
O 3.302807 2.842632 17.304359
O 3.449330 5.859940 19.232962
O 4.149159 7.102846 16.598571
O 5.732499 4.545958 20.209932
O 4.422529 7.421994 19.743656
O 1.731405 2.707253 17.870153
O 3.468069 5.764955 21.790712
O 0.054590 0.416836 10.589842
O 1.505053 2.671350 20.327905
O 1.602832 5.416506 21.726446
O 0.130552 3.466832 12.339206
O 4.489988 4.307424 24.128447
O 0.169955 3.649279 15.189920
O 1.436237 5.474964 24.153798
O 0.020386 2.471339 20.842141
O 4.440621 4.364701 26.692297
O 1.092313 2.358309 25.253887
O 0.073126 5.400634 24.956321
O 4.541815 7.116623 28.034575
O 3.152072 4.073209 27.520082
O 4.422843 7.137585 30.660225
O 0.572718 5.035769 28.617155
O 3.666414 4.667959 31.201855
O 2.942382 7.048532 31.304374
O 3.659994 7.109763 34.659254
