32

Mg 7.137136 4.219472 0.549492
Mg 4.451814 1.839020 4.796150
Mg 3.277695 4.857614 7.946088
Mg 0.588396 1.188701 3.699258
Cr 7.683890 2.987554 6.370225
Cr 3.896096 3.064578 2.119743
Cr 3.822618 0.038361 2.126135
Cr 0.037967 6.012564 6.374594
As 5.015177 1.627687 7.904921
As 6.564925 4.423573 3.658584
As 1.155503 1.397905 0.589856
As 2.705591 4.652948 4.838672
O 6.541151 1.457242 7.081077
O 5.041515 4.593952 2.830994
O 2.679508 1.568687 1.415638
O 1.181100 4.481790 5.665063
O 3.881078 1.937432 6.689200
O 7.702646 4.111632 2.442622
O 0.019041 1.085301 1.807307
O 3.841667 4.962750 6.052607
O 4.710902 0.139348 0.237362
O 6.871516 5.911210 4.485680
O 0.849306 2.885994 8.259639
O 3.011032 3.165203 4.009879
O 5.122305 3.005038 0.454621
O 6.455519 3.047705 4.705266
O 1.263898 0.021914 8.040430
O 2.594903 6.028448 3.790415
O 6.793907 4.540795 7.171110
O 4.787353 1.511239 2.920904
O 2.931268 4.536628 1.323849
O 0.927957 1.514908 5.573493
