46

Ni -0.006835 2.932913 0.750138
Ni 0.006835 6.453729 10.164096
Ni 2.509687 1.760408 4.706979
Ni 2.523356 7.626234 6.207255
Ni 2.516522 4.693321 -1.624683
Ni 0.000000 0.000000 7.081800
As 2.416153 8.419273 9.102953
As 0.040979 3.170226 11.683373
As 2.557501 1.523095 7.937344
As 2.475542 7.863547 2.976890
As 2.616890 0.967369 1.811280
As 4.992064 6.216416 -0.769140
As 0.100369 3.725952 3.645836
As 4.932674 5.660690 7.268397
O 0.288368 5.188908 8.888171
O 2.980598 2.333369 6.421021
O 0.372390 2.133668 10.499158
O 0.638582 7.204088 6.699207
O 4.660653 7.252974 0.415075
O 2.228153 0.495587 3.431054
O 2.888911 2.559653 9.121558
O 4.135400 8.396304 2.741321
O 4.674685 5.081721 4.496034
O 4.744675 4.197734 2.026063
O 1.877939 2.510767 1.242090
O 0.897643 0.990338 8.172913
O 1.001107 4.691932 11.436053
O 0.358358 4.304921 6.418199
O 4.321899 1.242472 1.633290
O 1.805378 3.450849 3.823827
O 3.517624 0.001389 8.184664
O 2.144137 6.826989 1.792675
O 2.158164 8.998241 -2.288284
O 1.618878 5.683659 -0.533571
O 3.227665 5.935793 7.090407
O 0.711144 8.144170 9.280943
O 2.052445 7.053273 4.493212
O 0.464077 2.359952 13.199696
O 4.031941 4.694710 -0.521820
O 2.804890 8.891055 7.483179
O 4.394461 2.182554 4.215027
O 2.874879 0.388400 13.202518
O 4.568966 7.026690 -2.285462
O 3.414165 3.702983 11.447804
O 1.515419 -0.001389 5.978936
O 3.155104 6.875875 9.672143
