46

Fe 0.207765 3.131090 0.761836
Fe 4.791160 6.402881 10.360114
Fe 2.707228 1.635896 4.799139
Fe 2.291697 7.898075 6.322812
Fe 2.499463 4.766985 -1.655733
Fe 0.000000 0.000000 7.216708
As 2.230805 8.488180 9.403933
As 0.275311 3.312092 11.786358
As 2.774773 1.454893 8.208034
As 2.224152 8.079077 2.913916
As 2.768120 1.045791 1.718017
As 4.723614 6.221879 -0.664408
As 0.268657 3.721195 3.842958
As 4.730268 5.812776 7.278993
O -0.035442 5.287540 8.925738
O 3.580480 1.646393 6.665977
O 0.646951 2.056439 10.866830
O 0.519583 7.363505 6.894478
O 4.351974 7.477532 0.255121
O 2.534905 0.520555 3.364763
O 3.146414 2.710546 9.127563
O 3.914043 8.339088 2.956625
O 4.613038 5.038961 4.630771
O 0.035442 4.246431 2.196212
O 1.979879 2.596520 1.333503
O 1.084882 1.194883 8.165326
O 1.064941 4.929435 11.289320
O 0.385887 4.495010 6.491180
O 4.392086 1.384876 1.214754
O 1.892623 3.382109 4.346221
O 3.564404 9.371522 5.393605
O 1.852512 6.823425 1.994388
O 2.113576 9.261995 -2.381262
O 1.414581 5.961868 -0.707116
O 3.106302 6.151861 6.775729
O 0.606840 8.149095 9.907197
O 1.418445 7.887578 4.455973
O 1.081018 3.120593 13.328415
O 3.933984 4.604536 -0.167370
O 2.464020 9.013416 7.757188
O 4.479342 2.170466 4.227472
O 2.885350 0.271976 13.503213
O 3.917908 6.413378 -2.206464
O 3.584344 3.572102 11.829066
O 1.434522 0.162449 5.728345
O 3.019046 6.937451 9.788448
