16

Mg 1.646428 1.381439 2.672504
Mg 1.529418 9.357965 7.306425
Mg 0.513496 7.012277 1.236916
Mg 2.665919 3.728417 8.742061
Sn 2.516556 3.850084 5.543547
Sn 0.253955 3.652845 1.906957
Sn 2.926522 7.088395 8.072642
Sn 0.658709 6.889582 4.435665
O 1.972965 8.665042 5.644107
O 0.811757 3.784428 8.577515
O 2.367680 6.955627 1.401198
O 1.203279 2.073896 4.335845
O 2.785858 2.595052 7.231845
O 2.947395 3.402671 1.966711
O 0.390010 8.144107 2.746778
O 0.229076 7.337775 8.012414
