13

Mg 3.038040 4.184426 4.917063
V 3.038046 6.763968 5.808721
V 6.076074 5.789290 6.521940
V 3.038040 4.184421 2.496522
V 0.000000 0.000000 0.000000
O 4.590782 3.833840 6.569746
O 1.485292 2.045760 4.739751
O 1.485292 4.535004 3.264379
O 4.416970 3.594446 3.952636
O 1.625552 2.238947 2.630956
O 4.450528 6.129901 7.203177
O 1.659110 4.774401 5.881497
O 4.590788 6.323087 5.094382
