22

Mg 5.581253 2.709875 2.540170
Mg 0.858607 4.591575 7.143306
Co 4.280021 1.314311 5.701778
Co 2.159839 5.987139 3.981698
P 1.016107 1.574511 5.372041
P 5.423753 5.726939 4.311435
P 3.971745 4.650909 6.474496
P 2.468115 2.650541 3.208980
O 4.903567 4.589393 5.251748
O 1.536293 2.712057 4.431728
O 0.008037 0.444090 4.750545
O 6.431823 6.857360 4.932931
O 3.919344 2.291578 3.617231
O 2.520516 5.009872 6.066245
O 2.349531 4.198950 2.790880
O 4.090329 3.102500 6.892590
O 6.045322 4.777432 3.305527
O 0.394538 2.524018 6.377949
O 4.200573 6.548227 3.872860
O 2.239287 0.753223 5.810616
O 1.738582 1.541920 2.344660
O 4.701278 5.759530 7.338816
