18

Mg 1.754615 1.808206 9.713640
Mg 1.754629 4.016179 1.126587
Mg 1.754622 4.697245 6.542964
Mg 1.754625 1.087551 4.286853
V -0.000004 1.550536 6.883565
V -0.000004 4.250385 3.962317
V 0.000011 1.351623 1.459697
V 3.509244 4.469783 9.380680
O 0.000000 2.942534 5.461370
O 0.000004 0.742649 3.279840
O 0.000007 3.645251 2.144396
O 3.509237 2.176819 8.697760
O 1.754625 1.962083 0.887611
O 1.754622 3.860289 9.955261
O 0.000000 5.092589 7.570454
O 1.754618 0.942768 6.298303
O 0.000004 5.816858 0.006194
O 1.754633 4.862719 4.523051
