20

Mg 3.660766 2.510054 5.816629
Mg 1.220260 5.154466 2.655794
Si 1.456311 1.772240 3.183070
Si 0.984195 4.179090 5.890149
Si 3.896822 3.485428 2.582265
Si 3.424710 5.892279 5.289346
W 1.220251 0.683250 6.515517
W 3.660761 6.981281 1.956899
O 2.937345 2.615961 3.680314
O 4.384187 4.694865 5.975509
O 1.943681 5.048566 4.792104
O 0.496829 2.969654 2.496905
O 0.661828 1.133718 4.397460
O 1.778683 2.890420 6.339375
O 4.219194 6.530801 4.074956
O 3.102334 4.774091 2.133039
O 4.210008 2.490702 1.399994
O 3.111525 6.948236 6.418754
O 1.769492 0.716282 2.053661
O 0.671018 5.173818 7.072423
