56

Mg 0.802479 1.037674 3.006483
Mg 0.040837 2.598897 6.126853
Mg 0.801495 1.020604 7.928326
Mg 0.029863 2.599870 11.026404
Mg 0.000660 2.596093 15.904061
Mg 3.010183 4.089548 19.162606
Mg 0.000594 2.595116 20.819104
Mg 2.997433 4.082064 24.064012
Cr 2.982906 4.066113 11.737757
Cr 2.977314 4.064813 14.216582
Cr 2.982906 1.503644 8.160984
Cr 0.778988 1.013926 12.816355
Cr 3.010453 4.082029 16.695571
Cr 5.175118 7.128465 20.524395
Cr 0.764732 1.026563 17.705692
Cr 3.010453 1.504292 13.097485
Cr 3.006199 4.087139 21.616565
Cr 5.242686 7.161262 25.512552
Cr 3.006199 1.494008 17.996992
Cr 2.967480 1.488221 22.875600
Cr 2.967480 4.068058 26.476617
Cr 5.234147 7.149903 30.421482
Cr 2.972400 4.059972 9.297840
Cr 5.161750 7.120161 35.254659
O 1.610249 2.139974 6.184703
O 1.636422 2.127076 8.486266
O 1.610249 4.524473 9.513061
O 4.321369 3.482539 11.381846
O 1.686217 4.688690 12.186378
O 1.614485 2.155252 11.129088
O 4.408592 3.606980 14.043538
O 1.679281 2.102447 13.470252
O 1.614485 4.506259 14.410696
O 4.382678 6.051572 15.093567
O 4.323277 3.488469 16.296058
O 4.408592 6.040532 17.440364
O 1.558450 2.099258 15.901515
O 1.645794 4.723229 17.029944
O 4.478680 3.630043 19.019206
O 1.662264 2.117223 18.354875
O 1.558450 4.551142 19.323931
O 4.358912 6.058044 19.973324
O 4.346857 3.456277 21.258164
O 4.478680 6.085463 22.446558
O 1.643466 4.712481 21.946858
O 1.534144 2.077547 20.765658
O 4.453287 3.615030 23.909158
O 1.606919 2.137942 23.185478
O 1.534144 4.560011 24.230758
O 4.344403 6.053420 24.870976
O 4.347289 3.442633 26.180209
O 4.453287 6.068766 27.334158
O 1.677427 4.672394 26.926746
O 4.381400 3.596860 28.755388
O 4.336909 6.043031 29.780830
O 4.381400 6.031381 32.153568
