12

Mo 5.507829 3.337182 2.492452
Mo 2.761052 -0.937866 2.235171
F 1.796647 -0.224707 0.754460
F 3.702628 3.567829 1.727427
F 3.231218 2.771773 -0.328041
F 4.767430 -0.540900 -1.904040
F 4.238387 2.254977 -3.122559
F 0.840016 3.482504 1.357699
F 1.250784 1.091964 5.627332
F 4.688894 -0.154236 1.106018
F 0.697806 3.885081 4.400732
F 2.306435 0.572369 2.786548
