28

V 6.106142 0.548590 -1.209452
V 2.328198 2.529101 3.467917
V 6.006965 -2.497294 0.134490
V 5.904325 0.824337 2.760824
P 0.206789 0.089206 4.425484
P 4.930916 -1.196658 5.581114
P 3.208320 1.156970 1.258356
P 1.961150 3.711577 -2.270126
O 4.224760 1.289634 -0.192652
O 4.647579 1.669847 3.587116
O 2.193779 2.560404 5.253593
O 5.672134 -0.687951 4.079695
O 1.476260 0.718855 1.425994
O 2.951784 2.333694 1.696181
O 0.532920 3.178100 3.420383
O 5.718245 2.112656 -2.646800
O 6.355954 -0.664351 -0.107214
O 1.025139 3.563935 -0.810849
O 1.708486 0.875418 4.157984
O 3.422876 4.078544 2.780082
O 6.448705 2.172976 1.180088
O 0.925531 4.604008 4.918033
O 0.638717 4.995889 0.858257
O 6.141933 -2.025085 -1.726746
O 5.965374 -2.592824 1.937169
O 4.559897 -0.095983 -1.848161
O 3.738077 4.121737 -2.487214
O 4.265260 0.306588 2.105114
