13

Mg 3.257987 4.257798 -1.169516
Mg 1.682851 1.608163 1.206141
Cr 2.470422 5.865949 -3.852498
Cr 4.940839 4.335686 -4.006888
Cr 4.940839 1.530270 2.204471
O 0.381680 2.319111 2.500593
O 4.559163 3.546838 -2.463964
O 0.376907 5.224636 1.004593
O 4.563936 0.641313 -0.967969
O 2.022184 1.992295 -0.659330
O 2.022184 5.202715 -2.264540
O 2.918665 0.663234 2.301167
O 2.918665 3.873660 0.695954
