68

Si 2.600604 0.359069 5.952007
Si 7.801811 5.980951 -5.829690
Si 3.900906 1.151571 2.782221
Si 6.501509 1.510640 -1.882691
Si 1.300302 6.922184 3.320600
Si 9.102113 -1.808101 2.723145
Si 7.801811 1.077206 0.868951
Si 3.900906 4.829380 2.005009
Si 1.300302 8.148121 -2.600828
Si 9.102113 -0.582165 -3.198282
Si 6.501509 5.188449 -2.659903
Si 2.600604 5.262814 -0.746633
W 0.000000 0.000000 0.000000
W 0.000000 4.903746 -2.451873
W 0.000000 0.000000 4.246768
W 0.000000 4.903746 1.794895
W 5.201208 -1.733736 2.513032
W 5.201208 3.170010 -4.185609
W 5.201208 3.170010 0.061159
W 5.201208 -1.733736 -1.733736
O 3.186249 3.822116 -0.182191
O 0.020732 3.016680 6.066981
O 1.132615 5.574501 4.419547
O 2.014958 5.063974 -1.911205
O 2.014958 0.396187 -1.188645
O 6.083551 -0.147695 -1.322722
O 6.313090 -0.224208 1.185399
O 1.994205 1.234986 3.352602
O 9.290532 0.739062 -0.047599
O 3.207002 7.906609 -2.955244
O 9.520072 -0.169332 -2.056864
O 0.020732 1.892810 -0.031995
O 1.994205 4.219464 2.047781
O 6.083551 6.731348 -3.085458
O 1.132615 -0.357992 1.257895
O 5.180476 4.225214 -3.074583
O 4.068593 4.379429 3.361676
O 9.290532 -3.077297 -0.488111
O 6.313090 6.871247 -5.667393
O 1.111883 5.600958 0.169917
O 9.520072 -2.105517 1.447339
O 4.068593 1.647827 1.371630
O 3.207002 7.690197 -5.431672
O 3.186249 1.961508 5.199227
O 7.216166 2.517904 0.304509
O 10.381683 3.323340 -5.944663
O 9.269800 0.765519 -4.297230
O 8.387457 1.276046 2.033522
O 8.387457 5.943833 1.310963
O 4.318864 6.487715 1.445039
O 4.089325 6.564228 -1.063081
O 8.408210 5.105034 -3.230284
O 7.216166 4.378512 -5.076909
O 7.195413 -1.350177 5.553990
O 6.333822 4.692192 -1.249312
O 5.221940 4.230939 1.165535
O 0.882343 8.445537 -1.325021
O 4.089325 -0.531227 5.789710
O 1.111883 9.417317 0.610429
O 6.333822 1.960590 -3.239358
O 5.221940 2.114806 3.196901
O 9.269800 6.698012 -1.135577
O 4.318864 -0.391328 3.207776
O 8.408210 2.120556 -1.925464
O 10.381683 4.447210 0.154313
O 0.882343 6.509352 2.179182
O 7.195413 -1.566589 3.077562
O 5.180476 2.109081 -1.043217
