46

Mg 7.133412 11.603158 10.019496
Mg 2.174479 6.486555 3.278953
Mg 5.488910 6.302318 11.773144
Mg 4.761141 4.619865 9.278721
Mg 0.529977 1.185715 5.032601
Mg 2.902248 8.169008 5.773376
Si 3.574159 4.351699 5.397525
Si 6.991824 10.539120 12.716559
Si 3.739926 9.923487 11.630416
Si 5.776755 6.463313 7.038629
Si 0.671566 2.249753 2.335539
Si 3.923464 2.865386 3.421681
Si 1.886634 6.325560 8.013468
Si 4.089231 8.437174 9.654572
W 1.484828 2.981708 7.640565
W 6.178562 9.807164 7.411533
W 0.000000 0.000000 0.000000
W 0.000000 4.478589 5.610201
O 1.245853 6.587789 6.560529
O 0.647848 5.598053 4.131480
O 4.004857 10.198873 6.336728
O 0.611339 1.101210 6.689125
O 5.708758 9.147934 9.263018
O 7.166388 6.982533 6.330549
O 2.851141 5.143426 8.335769
O 7.433449 10.858937 14.138690
O 0.497001 5.806340 8.721549
O 2.838834 7.976644 8.403893
O 7.015542 7.190819 10.920617
O 1.954632 3.640939 5.789080
O 3.905248 3.031874 4.815471
O 5.310782 4.141665 11.168893
O 2.418826 3.288052 2.583688
O 0.229940 1.929936 0.913408
O 0.612228 0.950198 3.328851
O 4.824556 4.812228 6.648205
O 3.788741 5.728876 4.481835
O 5.244563 9.500821 12.468410
O 3.758141 9.756998 10.236627
O 7.052050 11.687662 8.362972
O 3.874648 7.059997 10.570263
O 3.658533 2.590000 8.715370
O 7.051161 11.838675 11.723246
O 4.812248 7.645446 6.716329
O 2.352607 8.647208 3.883204
O 6.417537 6.201084 8.491568
