16

Mg 0.948888 1.558059 2.307180
Mg 2.008613 7.524051 8.141965
Mg 0.050708 6.437992 1.899005
Mg 2.914006 2.648090 8.553170
V 1.897118 2.297684 5.405550
V 0.478006 4.016075 2.227726
V 2.498761 5.075971 8.231205
V 1.064937 6.786226 5.045639
O 2.519322 6.606356 6.768413
O 1.372881 3.091593 6.992003
O 1.598052 5.997623 3.463634
O 0.443365 2.478205 3.683125
O 0.467414 0.253029 5.552126
O 2.371726 3.662566 2.194706
O 2.492564 8.829785 4.898033
O 0.602042 5.428513 8.262793
