56

Mg 0.715414 1.011116 2.886382
Mg 0.108719 2.615109 6.138574
Mg 0.777340 1.023091 7.867795
Mg 6.092675 5.470449 22.501181
Mg 0.006117 2.590842 15.822198
Mg 3.053247 4.041856 19.161019
Mg 0.103508 2.597499 20.854075
Mg 3.086289 3.997628 24.132919
Ti 3.029312 4.036317 11.838870
Ti 3.037208 4.050729 14.230400
Ti 3.029312 6.560465 15.298980
Ti 0.749313 0.977853 12.758165
Ti 3.032902 3.967614 16.522106
Ti 5.265581 7.018414 20.581951
Ti 0.728082 0.973602 17.636273
Ti 3.032902 1.585395 13.256553
Ti 3.060146 4.062533 21.680552
Ti 5.394143 7.093128 25.620204
Ti 3.060146 6.581348 25.133351
Ti 3.053852 6.452446 29.956374
Ti 3.053852 4.081796 26.706680
Ti 5.351130 7.062542 30.482767
Ti 3.028223 4.057202 28.928260
Ti 5.225975 7.000524 35.251333
O 1.686301 2.077413 6.207889
O 1.660568 2.093224 8.496712
O 1.686301 4.541597 9.585800
O 4.401187 3.415752 11.490588
O 1.414607 4.584146 11.771140
O 1.603211 2.079339 11.031610
O 4.570444 3.516792 14.209710
O 1.544496 2.028048 13.279129
O 1.603211 4.509709 14.363168
O 4.573943 5.974501 15.292424
O 4.543408 3.466582 16.559684
O 4.570444 6.011003 17.628782
O 1.580683 2.039147 15.870745
O 1.584365 4.631485 16.879051
O 4.526000 3.505998 19.025586
O 1.531645 2.018865 18.171104
O 1.580683 4.528693 19.283422
O 4.528452 5.984701 20.130387
O 4.533389 3.435257 21.466972
O 4.526000 6.036620 22.494571
O 1.556473 4.607115 21.758706
O 1.592060 2.017163 20.739466
O 4.534202 3.517143 23.964839
O 1.695207 2.107987 23.248885
O 1.592060 4.572720 24.242633
O 4.597749 6.045567 25.096227
O 4.555813 3.413680 26.412812
O 4.534202 6.016480 27.390938
O 1.361581 4.545982 26.433079
O 4.604300 3.525720 28.989800
O 4.599437 6.014778 30.018962
O 4.604300 5.992517 32.371293
