18

Si 1.257341 1.790080 2.927581
Si 1.459271 4.368932 5.586405
Si 3.973931 3.678331 2.665820
Si 4.175866 6.257158 5.324671
W 1.358306 1.030976 6.238383
W 4.074895 7.016312 2.013882
O 2.500648 2.977853 3.166298
O 0.215996 4.156867 4.403923
O 2.932591 5.069344 5.085949
O 5.217232 3.890391 3.848253
O 0.996499 1.028513 4.305441
O 1.720025 2.968263 6.300109
O 4.436615 7.018886 3.946893
O 3.713084 5.079070 1.952280
O 4.583571 2.612759 1.712596
O 3.566165 7.170711 6.424876
O 1.866976 0.876431 1.827419
O 0.849581 5.434554 6.539540
