24

V 2.585143 4.425614 5.216642
V 2.585901 4.424804 0.136488
V 2.634232 1.479985 5.472047
V 2.635573 1.480632 10.552757
V 0.001232 2.945351 5.345952
V 0.000026 0.000718 10.681842
V 0.001222 -0.002380 5.342124
V 0.000016 2.942545 0.004130
O 4.333356 4.430673 4.346456
O 4.333267 4.429843 1.005116
O 0.888708 1.474658 6.342383
O 0.888150 1.475569 9.684001
O 0.798991 4.417503 6.285826
O 0.799299 4.418369 9.748897
O 4.422018 1.487790 4.402831
O 4.422483 1.487014 0.939727
O 3.454741 2.985449 6.303285
O 3.454871 5.876687 9.731201
O 1.766300 0.024321 4.382888
O 1.766718 2.923896 0.962193
O 1.766582 2.919728 4.385788
O 1.766754 0.028455 0.957701
O 3.455472 5.881128 6.306239
O 3.454777 2.981746 9.726742
