20

Mg 0.051380 0.197034 1.960393
Mg 2.691957 2.504945 5.895485
Mg 2.587565 2.898443 1.967434
Mg 5.228158 5.206403 5.902542
Mo 2.639732 0.000156 0.000073
Mo 0.000000 2.701570 0.006101
Mo 5.279523 2.701813 3.931591
Mo 2.639769 0.000119 3.925354
O 4.610664 3.195342 5.895148
O 1.970367 4.909720 1.973877
O 3.309155 0.493673 5.889073
O 0.668863 2.208068 1.967803
O 3.521915 1.730636 3.378836
O 0.882341 0.971318 4.478653
O 4.397963 4.438711 0.555037
O 1.758083 3.666387 7.313366
O 3.521466 1.736995 0.549584
O 0.881591 0.964655 7.307937
O 1.757608 3.672758 4.484098
O 4.397181 4.432092 3.384273
