40

Mg 2.423165 4.576275 1.340568
Mg 0.294899 9.260387 7.169657
Mg 3.012963 4.791950 6.063246
Mg 5.141229 0.107838 0.234156
Cr 5.187131 6.129695 0.240869
Cr 2.967060 1.445583 6.056534
Cr 0.248996 3.238530 7.162945
Cr 2.469068 7.922642 1.347280
Ge 4.505615 3.141447 -1.303018
Ge 3.648577 7.825559 7.600421
Ge 0.930513 6.226778 8.706832
Ge 1.787551 1.542666 -0.196607
Ge 1.308737 3.232740 3.852482
Ge 1.409327 7.916853 4.657743
Ge 4.127391 6.135485 3.551331
Ge 4.026801 1.451372 2.746071
O 2.778481 2.717122 2.603626
O 5.375711 7.401235 3.693777
O 2.657647 6.651102 4.800188
O 0.060417 1.966990 3.710037
O 0.948240 3.039811 0.643452
O 1.769824 7.723923 7.866782
O 4.487888 6.328414 6.760371
O 3.666304 1.644301 -0.462959
O 3.783670 9.300474 2.004854
O 4.370522 4.616361 4.292549
O 1.652458 0.067751 5.398960
O 1.065606 4.751863 3.111265
O 1.170833 0.232744 0.823764
O 1.547231 4.916857 7.686461
O 4.265295 9.135481 6.580050
O 3.888897 4.451368 -0.282647
O 4.133365 3.168896 6.681298
O 4.020826 7.853008 -0.383895
O 1.302763 6.199329 0.722516
O 1.415301 1.515217 7.787709
O 1.717012 3.311096 5.437653
O 1.001052 7.995208 3.072572
O 3.719116 6.057129 1.966161
O 4.435076 1.373016 4.331242
