12

Cr 0.055982 0.076251 4.839930
Cr 1.379590 1.879106 2.525901
Cr 3.588928 4.888394 3.907950
Cr 3.588928 4.888394 6.325721
O 2.110433 2.874571 3.666780
O 2.262546 5.385256 4.797335
O 2.110433 2.874571 6.335138
O 4.906392 4.379385 5.435633
O 2.271464 5.397403 7.215810
O 4.915309 4.391532 7.854108
O 5.067422 6.902217 6.316305
O 5.067422 6.902217 8.984663
