13

Mg 3.266283 4.181448 -0.944220
Mg 1.645431 1.644014 1.581284
W 2.455859 5.825450 -3.783828
W 4.911714 4.482141 1.308725
W 4.911714 1.343315 -2.413862
O 0.486206 2.359292 2.934387
O 4.425513 3.466158 -2.297319
O 0.299988 5.027997 1.222729
O 4.611731 0.797453 -0.585666
O 2.003323 2.101382 -0.477941
O 2.003323 5.136776 -1.995638
O 2.908401 0.688674 2.632705
O 2.908401 3.724074 1.115005
