36

Bi 3.405313 4.820456 10.969052
Bi -0.012514 3.139272 11.542490
Bi 3.598299 4.738483 13.804694
Bi 3.341541 1.961656 7.835191
Bi 3.486364 4.850739 16.594304
Bi -0.005688 3.097275 6.044903
Bi 3.458960 4.948652 19.453154
Bi 3.480236 1.735517 13.333064
Bi 3.503881 4.830733 22.141381
Bi 3.506026 1.745710 18.905424
Bi 6.964022 6.539911 27.213296
Bi 6.247080 8.537506 30.537258
O 1.429468 2.434872 5.647360
O 1.558801 5.160073 8.675380
O 1.829477 2.586656 8.318195
O 4.785374 4.089501 10.485473
O 2.032567 2.589982 11.540129
O 2.207338 5.307649 11.752772
O 5.198191 6.919890 13.692078
O 5.100189 4.424416 13.423388
O 2.159769 5.312867 14.254507
O 2.014973 2.455799 13.771120
O 4.870324 3.977813 15.679671
O 5.261600 6.821713 16.192854
O 1.937639 2.862266 17.181542
O 2.136942 5.701945 17.561012
O 4.933446 7.232806 19.384764
O 5.000922 4.516110 19.114720
O 2.071451 2.736659 19.729758
O 2.021856 5.317240 19.917967
O 4.814923 4.281500 21.404332
O 5.005994 7.118187 21.702178
O 1.909921 5.598527 22.458149
O 5.274303 4.245981 24.218690
O 4.984083 6.910457 24.729366
O 5.406738 7.507552 27.842512
