36

Fe 2.946753 4.027062 9.387450
Fe 2.947164 1.517582 6.872019
Fe 2.953428 4.035031 14.169277
Fe 0.050495 2.578478 5.041157
Fe 2.954870 1.531347 11.660086
Fe 2.982337 4.074376 16.634645
Fe 5.270758 7.199922 16.540281
Fe 2.978130 4.069242 19.042831
Fe 0.062390 2.590012 9.831720
Fe 2.977886 6.634197 21.615703
Fe 5.939973 5.550274 23.488433
Fe 5.233028 7.148990 26.117541
O 1.494581 2.043651 4.976915
O 1.522638 2.081089 7.123442
O 1.495391 4.356144 7.294390
O 4.163973 3.378806 8.982073
O 1.440909 1.970659 9.700597
O 1.661798 4.727000 9.807477
O 1.532161 2.097209 11.916792
O 4.498020 3.687931 11.600822
O 4.430547 6.053492 11.785978
O 1.444062 4.355547 12.093144
O 4.193324 3.349315 13.831791
O 4.498610 6.145917 14.063971
O 1.648008 2.251262 14.631937
O 1.827013 4.691437 14.810351
O 4.361304 3.762876 16.412579
O 1.572084 2.147291 16.690075
O 4.458688 6.090104 16.569544
O 1.648598 4.470566 16.857438
O 4.209063 3.532448 18.476470
O 4.362984 5.960962 18.615726
O 1.573538 4.724965 19.283816
O 4.546751 3.636559 21.163703
O 4.368950 5.970300 21.367926
O 4.547693 6.213099 23.748426
