14

Mg 1.465690 2.292319 3.460733
Mg 4.066635 1.370119 -1.298837
W 0.000000 0.000000 0.000000
W 2.766162 -0.812825 2.082370
F 2.180073 0.121202 0.346219
F 3.352251 3.541236 1.815677
F 3.282057 2.780373 -0.543089
F 4.665348 -0.163177 -1.892514
F 4.159528 2.370367 -3.094236
F 0.685411 3.481055 1.361099
F 1.372796 1.292071 5.256131
F 4.846914 0.181383 0.800797
F 0.866976 3.825616 4.054410
F 2.250267 0.882065 2.704985
