24

Sb 4.866958 1.917291 7.591688
Sb 0.654685 6.341560 2.543795
Sb 0.654685 2.645441 2.504098
Sb 4.866958 -1.778827 7.551992
F 3.334884 2.493555 8.780124
F 2.186758 5.765296 3.732231
F 2.186758 2.069178 1.315663
F 3.334884 -1.202564 6.363556
F 3.553254 1.789417 6.218732
F 1.968388 -0.922803 1.170839
F 1.968388 2.773315 3.877055
F 3.553254 5.485536 8.924948
F 4.873738 3.397121 3.938871
F 0.647904 4.861730 8.986764
F 0.647904 1.165612 6.156915
F 4.873738 -0.298998 1.109022
F 4.630201 4.083803 1.370099
F 0.891441 4.175048 6.417992
F 0.891441 0.478930 8.725687
F 4.630201 0.387684 3.677794
F 4.876422 3.757566 6.979803
F 0.645220 4.501285 1.931910
F 0.645220 0.805166 3.115984
F 4.876422 0.061447 8.163877
