10

Ni 5.457957 2.742475 0.902452
Ni 2.735264 5.482511 0.869795
F 5.230892 2.495768 -2.698484
F 3.893976 1.199469 1.247047
F 0.216092 2.978828 2.204380
F 1.187888 0.239449 3.117105
F 1.548350 4.280279 -1.741325
F 2.511121 1.549789 -0.829456
F 4.266960 5.226021 -3.608904
F 2.968443 3.942262 0.311868
