28

Mg 2.144826 6.978983 6.949382
Mg 0.714934 2.297589 3.638551
Mg 2.144829 2.340946 8.929716
Mg 0.714940 6.935802 1.658705
Ti 2.144861 8.671966 9.359552
Ti 0.714937 0.604745 1.228296
Ti 2.144835 4.035478 6.520958
Ti 0.714940 5.241335 4.066722
Ti 2.144818 8.482888 4.260364
Ti 0.714937 0.793915 6.327803
Ti 2.144823 3.845009 1.037863
Ti 0.714952 5.430171 9.550196
O 2.144829 6.619818 3.330382
O 0.714934 2.656874 7.257181
O 2.144832 1.980965 1.965478
O 0.714957 7.295245 8.622550
O 2.144843 5.820123 0.425799
O 0.714934 3.456819 10.160431
O 2.144826 1.180583 4.868821
O 0.714929 8.096099 5.719366
O 2.144832 4.877493 8.270812
O 0.714943 4.399876 2.317619
O 2.144821 0.237823 7.605693
O 0.714932 9.038915 2.981997
O 2.144826 8.379862 0.774870
O 0.714963 0.897452 9.812841
O 2.144826 3.739023 4.523334
O 0.714952 5.536992 6.064589
