14

Bi 4.622106 3.726788 3.990706
Bi 1.655803 6.665400 3.990706
Bi 1.483252 1.465036 -0.000000
Bi 4.793345 8.926217 -0.000001
O 5.011579 4.299152 1.995353
O 1.267767 6.090717 1.995353
O 1.872261 0.890424 1.995353
O 4.406068 9.497523 1.995353
O 0.453319 3.274039 -0.000000
O 5.823968 7.116403 -0.000000
O 3.592719 1.919221 -0.000000
O 2.684907 8.471512 -0.000000
O 3.138835 5.195907 0.000004
O 6.277432 -0.004155 3.990702
