20

Mg 3.973304 2.781670 6.052769
Mg 1.324440 5.267533 2.159305
Fe 1.324429 1.009496 6.308919
Fe 3.973298 7.039716 1.903144
Si 1.289613 1.729580 2.933183
Si 1.359251 4.404650 5.674187
Si 3.938482 3.644550 2.537877
Si 4.008126 6.319621 5.278882
O 2.632245 2.825760 3.293239
O 0.016624 4.062669 4.579137
O 2.665499 5.223449 4.918828
O 5.281109 3.986530 3.632927
O 0.681204 1.114852 4.272341
O 1.967665 3.053851 6.250501
O 4.616534 6.934349 3.939725
O 3.330068 4.995342 1.961563
O 4.455054 2.683069 1.470616
O 3.491554 7.359427 6.269806
O 1.806179 0.689773 1.942258
O 0.842690 5.366134 6.741451
