88

Mg 0.000000 0.000000 0.000000
Mg 0.000000 0.000000 0.000000
Mg 0.000000 0.000000 0.000000
Mg 0.000000 0.000000 0.000000
Mg 0.000000 0.000000 0.000000
Mg 0.000000 0.000000 0.000000
Mg 0.000000 0.000000 0.000000
Mg 0.000000 0.000000 0.000000
Co 0.000000 0.000000 0.000000
Co 0.000000 0.000000 0.000000
Co 0.000000 0.000000 0.000000
Co 0.000000 0.000000 0.000000
Co 0.000000 0.000000 0.000000
Co 0.000000 0.000000 0.000000
Co 0.000000 0.000000 0.000000
Co 0.000000 0.000000 0.000000
Bi 0.000000 0.000000 0.000000
Bi 0.000000 0.000000 0.000000
Bi 0.000000 0.000000 0.000000
Bi 0.000000 0.000000 0.000000
Bi 0.000000 0.000000 0.000000
Bi 0.000000 0.000000 0.000000
Bi 0.000000 0.000000 0.000000
Bi 0.000000 0.000000 0.000000
Bi 0.000000 0.000000 0.000000
Bi 0.000000 0.000000 0.000000
Bi 0.000000 0.000000 0.000000
Bi 0.000000 0.000000 0.000000
Bi 0.000000 0.000000 0.000000
Bi 0.000000 0.000000 0.000000
Bi 0.000000 0.000000 0.000000
Bi 0.000000 0.000000 0.000000
O 0.000000 0.000000 0.000000
O 0.000000 0.000000 0.000000
O 0.000000 0.000000 0.000000
O 0.000000 0.000000 0.000000
O 0.000000 0.000000 0.000000
O 0.000000 0.000000 0.000000
O 0.000000 0.000000 0.000000
O 0.000000 0.000000 0.000000
O 0.000000 0.000000 0.000000
O 0.000000 0.000000 0.000000
O 0.000000 0.000000 0.000000
O 0.000000 0.000000 0.000000
O 0.000000 0.000000 0.000000
O 0.000000 0.000000 0.000000
O 0.000000 0.000000 0.000000
O 0.000000 0.000000 0.000000
O 0.000000 0.000000 0.000000
O 0.000000 0.000000 0.000000
O 0.000000 0.000000 0.000000
O 0.000000 0.000000 0.000000
O 0.000000 0.000000 0.000000
O 0.000000 0.000000 0.000000
O 0.000000 0.000000 0.000000
O 0.000000 0.000000 0.000000
O 0.000000 0.000000 0.000000
O 0.000000 0.000000 0.000000
O 0.000000 0.000000 0.000000
O 0.000000 0.000000 0.000000
O 0.000000 0.000000 0.000000
O 0.000000 0.000000 0.000000
O 0.000000 0.000000 0.000000
O 0.000000 0.000000 0.000000
O 0.000000 0.000000 0.000000
O 0.000000 0.000000 0.000000
O 0.000000 0.000000 0.000000
O 0.000000 0.000000 0.000000
O 0.000000 0.000000 0.000000
O 0.000000 0.000000 0.000000
O 0.000000 0.000000 0.000000
O 0.000000 0.000000 0.000000
O 0.000000 0.000000 0.000000
O 0.000000 0.000000 0.000000
O 0.000000 0.000000 0.000000
O 0.000000 0.000000 0.000000
O 0.000000 0.000000 0.000000
O 0.000000 0.000000 0.000000
O 0.000000 0.000000 0.000000
O 0.000000 0.000000 0.000000
O 0.000000 0.000000 0.000000
O 0.000000 0.000000 0.000000
O 0.000000 0.000000 0.000000
O 0.000000 0.000000 0.000000
O 0.000000 0.000000 0.000000
O 0.000000 0.000000 0.000000
O 0.000000 0.000000 0.000000
O 0.000000 0.000000 0.000000
