52

Mg 0.000000 0.000000 0.000000
Mg 0.000000 0.000000 0.000000
Mg 0.000000 0.000000 0.000000
Mg 0.000000 0.000000 0.000000
Fe 0.000000 0.000000 0.000000
Fe 0.000000 0.000000 0.000000
Fe 0.000000 0.000000 0.000000
Fe 0.000000 0.000000 0.000000
Fe 0.000000 0.000000 0.000000
Fe 0.000000 0.000000 0.000000
Fe 0.000000 0.000000 0.000000
Fe 0.000000 0.000000 0.000000
P 0.000000 0.000000 0.000000
P 0.000000 0.000000 0.000000
P 0.000000 0.000000 0.000000
P 0.000000 0.000000 0.000000
P 0.000000 0.000000 0.000000
P 0.000000 0.000000 0.000000
P 0.000000 0.000000 0.000000
P 0.000000 0.000000 0.000000
O 0.000000 0.000000 0.000000
O 0.000000 0.000000 0.000000
O 0.000000 0.000000 0.000000
O 0.000000 0.000000 0.000000
O 0.000000 0.000000 0.000000
O 0.000000 0.000000 0.000000
O 0.000000 0.000000 0.000000
O 0.000000 0.000000 0.000000
O 0.000000 0.000000 0.000000
O 0.000000 0.000000 0.000000
O 0.000000 0.000000 0.000000
O 0.000000 0.000000 0.000000
O 0.000000 0.000000 0.000000
O 0.000000 0.000000 0.000000
O 0.000000 0.000000 0.000000
O 0.000000 0.000000 0.000000
O 0.000000 0.000000 0.000000
O 0.000000 0.000000 0.000000
O 0.000000 0.000000 0.000000
O 0.000000 0.000000 0.000000
O 0.000000 0.000000 0.000000
O 0.000000 0.000000 0.000000
O 0.000000 0.000000 0.000000
O 0.000000 0.000000 0.000000
O 0.000000 0.000000 0.000000
O 0.000000 0.000000 0.000000
O 0.000000 0.000000 0.000000
O 0.000000 0.000000 0.000000
O 0.000000 0.000000 0.000000
O 0.000000 0.000000 0.000000
O 0.000000 0.000000 0.000000
O 0.000000 0.000000 0.000000
