13

Mg 0.000000 0.000000 0.000000
Mn 0.000000 0.000000 0.000000
Mn 0.000000 0.000000 0.000000
Mn 0.000000 0.000000 0.000000
Mn 0.000000 0.000000 0.000000
S 0.000000 0.000000 0.000000
S 0.000000 0.000000 0.000000
S 0.000000 0.000000 0.000000
S 0.000000 0.000000 0.000000
S 0.000000 0.000000 0.000000
S 0.000000 0.000000 0.000000
S 0.000000 0.000000 0.000000
S 0.000000 0.000000 0.000000
