12

Mo 0.000000 0.000000 0.000000
Mo 0.000000 0.000000 0.000000
F 0.000000 0.000000 0.000000
F 0.000000 0.000000 0.000000
F 0.000000 0.000000 0.000000
F 0.000000 0.000000 0.000000
F 0.000000 0.000000 0.000000
F 0.000000 0.000000 0.000000
F 0.000000 0.000000 0.000000
F 0.000000 0.000000 0.000000
F 0.000000 0.000000 0.000000
F 0.000000 0.000000 0.000000
