          20

Mn           2.57086   4.27304   3.62064
Mn           5.53028   1.16257   0.82998
C            0.19954   4.27304   3.27639
C            7.90159   1.16257   1.17422
S            3.39438   1.16257   3.31837
S            4.70675   4.27304   1.13225
O            0.39860   1.16257   1.06155
O            0.77333   4.27304   4.45062
O            1.11188   4.27304   2.30149
O            2.51239  -0.00000   3.64203
O            2.51239   2.32515   3.64203
O            3.48635   4.27304   0.34865
O            3.76455   1.16257   1.86693
O            4.33658   4.27304   2.58369
O            4.61479   1.16257   4.10198
O            5.58874   3.11047   0.80859
O            5.58874   5.43562   0.80859
O            6.98925   1.16257   2.14913
O            7.32780   1.16257   0.00000
O            7.70253   4.27304   3.38907
