          14
     5.95900      5.95900      5.95900     93.08000    121.17000     57.58000
 LI      2.993000     1.645000     2.990000
 LI      3.076000     4.965000     1.858000
  V      4.577000     2.515000     0.000000
  V      0.055000     3.305000     2.424000
 CO      2.980000     0.000000     0.000000
 CO      1.597000     2.515000     0.000000
  O      3.031000     4.940000     3.881000
  O      7.373000     4.052000     1.155000
  O      5.897000     1.791000     1.220000
  O      4.674000     4.018000     1.220000
  O      1.396000     2.592000     3.628000
  O      0.172000     4.819000     3.628000
  O     -1.303000     2.559000     3.693000
  O      3.039000     1.670000     0.967000
