12

O 2.633359 4.689598 2.035368
O 0.845127 1.872557 2.335192
O 0.932718 5.938803 3.642816
O 2.720950 0.623365 0.727745
F 0.973214 2.486663 -0.142625
F 2.761446 4.075486 4.513201
F 2.762901 0.895511 4.864650
F 0.974670 5.666638 -0.494081
Na 0.980492 2.394314 4.486300
Na 2.768724 4.167848 -0.115743
V 2.658050 5.652805 3.240469
V 0.869823 0.909364 1.130092
