16

Li 0.905552 3.381064 8.616886
Li 2.716643 1.346368 2.872295
O 2.716643 2.134142 10.123026
O 0.905552 0.150725 2.872295
O 0.905552 2.593280 1.366144
O 2.716643 4.576712 8.616886
O 0.905552 2.593280 4.378447
O 2.716643 2.134142 7.110735
O 2.716643 0.115553 0.835999
O 2.716643 0.115553 4.908592
O 0.905552 4.611884 10.653183
O 0.905552 4.611884 6.580590
V 2.716643 0.508360 10.348157
V 0.905552 4.219077 1.141025
V 2.716643 0.508360 6.885616
V 0.905552 4.219077 4.603566
