34

O 4.583715 5.910625 9.433901
O 4.027442 8.328434 7.985842
O 7.334651 7.921056 8.602805
O 4.286149 6.415952 5.041156
O 4.842423 3.998143 6.489214
O 1.535214 4.405520 5.872252
O 6.548728 4.545767 9.994476
O 1.033455 7.009413 7.944614
O 7.781452 9.795881 7.133388
O 2.321137 7.780810 4.480581
O 0.130955 4.539568 7.127072
O 7.065770 4.091901 8.188132
O 5.407078 8.884215 5.253404
O 8.738910 7.787009 7.347985
O 1.804095 8.234676 6.286925
O 3.462786 3.442361 9.221653
O 7.501511 7.710928 10.846660
O 6.960431 10.119890 9.405427
O 4.215385 8.125329 10.228127
O 1.368354 4.615649 3.628397
O 1.909434 2.206686 5.069630
O 4.654479 4.201248 4.246930
O 1.088412 2.530696 7.341669
O 7.836410 5.317164 6.530443
S 6.666138 4.039653 6.993815
S 0.340505 3.551949 6.538690
S 4.068226 7.799300 4.540978
S 2.203727 8.286923 7.481241
S 8.529359 8.774628 7.936367
S 4.801639 4.527277 9.934079
Cr 5.779639 8.032047 9.432005
Cr 3.090225 4.294530 5.043052
Cr 7.586919 10.543648 12.381370
Cr 1.282946 1.782928 2.093687
