14

Li 3.510431 0.282833 4.821908
Li 1.791875 2.535095 1.607309
O 1.491829 0.595495 1.607309
O 1.292563 3.189472 3.407810
O 4.009743 -0.371543 0.193211
O 4.009743 -0.371543 3.021395
O 3.810461 2.222439 4.821908
O 1.292563 3.189472 6.236007
O 1.277552 0.876312 4.821908
O 4.024738 1.941623 1.607309
V 1.883801 2.414621 4.821908
V 3.418494 0.403321 1.607309
Mn 0.000000 0.000000 0.000000
Mn 0.000000 0.000000 3.214605
