24

Li 3.768613 1.122285 5.815023
Li 1.256204 6.233576 -0.111086
O 4.476615 5.013028 -0.599990
O 3.060611 6.869072 0.851044
O 2.794889 1.398888 0.360984
O 4.742337 6.637685 4.430467
O 0.548203 2.342833 6.303927
O 1.964206 0.486789 4.852894
O 0.393986 4.290291 4.217368
O 2.118423 2.217704 2.596414
O 4.630831 3.065570 1.486569
O 2.906395 5.138157 3.107523
O 2.952643 3.196922 5.120503
O 4.584583 1.408977 3.721531
O 2.072174 4.158939 0.583434
O 0.440234 5.946884 1.982406
O 0.282480 0.718176 1.273470
O 2.229929 5.956973 5.342953
Fe 1.256204 2.419244 4.392481
Fe 3.768613 4.936617 1.311456
W 1.285017 6.222096 3.557999
W 1.227392 2.490174 0.653203
W 3.739801 1.133764 2.145939
W 3.797425 4.865687 5.050734
