18

Li 0.000000 0.000000 3.299292
Li 0.000000 0.000000 0.000000
Li 0.000000 3.299292 3.299292
Li 0.000000 3.299292 0.000000
O 1.060658 1.649646 1.649646
O 3.546831 4.948938 4.948938
O 3.375524 1.649646 3.537923
O 3.375524 6.359953 1.649646
O 3.375524 3.537923 1.649646
O 3.375524 1.649646 6.359953
O 1.231964 4.948938 3.060661
O 1.231964 4.948938 0.238631
O 1.231964 0.238631 4.948938
O 1.231964 3.060661 4.948938
V 2.739507 1.649646 1.649646
V 1.867982 4.948938 4.948938
Ge 2.303744 1.649646 4.948938
Ge 2.303744 4.948938 1.649646
