12

O 1.160125 1.517496 0.338241
O 1.160125 1.517496 2.903104
O 1.046970 3.513330 1.620673
O 1.392918 3.965846 4.862018
O 3.370101 2.264403 1.620673
O 3.716058 2.716923 4.862018
O 3.602894 4.712758 6.144449
O 3.602894 4.712758 3.579586
P 1.661609 2.173460 1.620673
P 3.101414 4.056782 4.862018
V 0.000000 0.000000 0.000000
V 0.000000 0.000000 3.241345
