11

Li 0.000000 1.329209 3.503140
O 2.364789 1.958680 1.857724
O 1.271107 0.637157 -0.196221
O 0.777949 3.258133 3.453570
O 3.951629 0.065377 0.981620
O 1.272763 4.484732 0.907365
O 3.456816 2.360570 -0.740561
O 3.458471 4.455979 2.486637
Fe 0.000000 4.642650 -0.512727
As 2.812647 1.217063 0.371548
As 1.916931 3.653777 2.188288
