20

Li 0.000000 0.000000 0.000000
Li 2.819688 2.893153 3.949330
O 1.658815 1.087189 3.587359
O 1.020334 4.169351 3.562699
O 1.799359 1.276199 0.386631
O 4.619059 1.616960 4.335960
O 3.840023 4.510113 7.512028
O 2.266972 2.716821 6.022566
O 3.980567 4.699117 4.311292
O 4.478514 1.805958 7.536688
O 0.552728 5.609985 5.958332
O 3.372421 3.069479 1.876093
O 5.086666 0.176326 1.940326
O 1.160879 3.980342 0.361971
Mo 2.819694 2.893153 7.965114
Mo 5.639388 0.000000 3.882874
La 0.056321 2.553230 1.965749
La 2.763379 5.446389 1.983581
La 5.583067 3.233069 5.932903
La 2.876014 0.339917 5.915078
