36

O 0.680072 3.290976 9.139085
O 4.915249 0.788966 4.188715
O 4.915249 5.087297 0.761665
O 0.680072 7.589308 5.712046
O 1.773297 8.247789 0.756279
O 3.822024 4.428807 5.706660
O 3.822024 0.130467 9.144471
O 1.773297 3.949458 4.194101
O 5.117061 1.276643 1.349186
O 0.478254 2.803282 6.299567
O 0.478260 7.101613 8.551574
O 5.117066 5.574974 3.601194
O 4.178843 3.108531 3.365447
O 1.416478 0.971411 8.315827
O 1.416478 5.269742 6.535324
O 4.178843 7.406854 1.584943
O 2.646363 6.525387 4.644734
O 2.948958 6.151209 9.595104
O 2.766103 1.098488 2.810271
O 2.646363 2.227055 0.305646
O 2.766103 5.396820 2.140109
O 2.829218 7.279776 7.090499
O 2.829218 2.981445 7.760651
O 2.948958 1.852886 5.256026
P 1.875199 2.381420 8.837607
P 3.720122 1.698521 3.887227
P 3.720122 5.996844 1.063154
P 1.875199 6.679752 6.013534
V 3.668807 0.612539 0.900098
V 1.926514 3.467403 5.850478
V 3.668807 4.910871 4.050282
V 1.926514 7.765725 9.000662
Sr 0.790585 3.637888 1.852185
Sr 4.804735 0.442037 6.802555
Sr 4.804735 4.740368 8.048576
Sr 0.790585 7.936219 3.098195
