38

V 0.924834 3.785381 10.014852
V 2.817192 3.785381 4.039685
V 0.947683 6.587638 -0.480885
V 2.794344 6.587638 5.494282
V 0.949464 3.799432 1.654557
V 2.792562 3.799432 7.629724
V 2.819875 6.574885 1.903199
V 0.922151 6.574885 7.878366
V 0.967965 0.054131 1.672413
V 2.774062 0.054131 7.647581
V 0.902756 0.018672 10.070721
V 2.839274 0.018672 4.095554
O 2.804690 4.255910 5.693688
O 0.937337 4.255910 -0.281479
O 0.957510 8.301573 -0.528933
O 2.784517 8.301573 5.446234
O 2.780640 0.042902 9.770208
O 0.961387 0.042902 3.795041
O 2.777243 2.076047 7.590730
O 0.964784 2.076047 1.615563
O 0.933943 6.132271 9.814603
O 2.808084 6.132271 3.839435
O 2.794231 3.998521 9.571537
O 0.947796 3.998521 3.596369
O 2.825874 2.078805 4.120451
O 0.916153 2.078805 10.095619
O 2.830974 8.296334 1.967197
O 0.911053 8.296334 7.942365
O 0.922522 6.375301 5.930487
O 2.819505 6.375301 -0.044681
O 0.921530 4.265719 8.001990
O 2.820497 4.265719 2.026822
O 0.949221 6.107392 1.529734
O 2.792806 6.107392 7.504901
O 0.941243 0.035017 0.002375
O 2.800784 0.035017 5.977542
O 2.833859 0.040339 2.124995
O 0.908167 0.040339 8.100162
