13

Li 3.879745 -0.259896 3.502168
O 3.879745 -0.259896 0.298676
O 3.857351 2.261576 0.053369
O 0.981129 1.208806 0.053369
O 0.981129 3.699687 0.053369
O 0.000000 0.000000 2.695474
O 2.940651 1.022930 2.423089
O 2.940651 -1.416897 2.423089
O 5.757921 -0.385705 2.423089
Sc 1.939870 2.390023 3.637399
Mo 1.708121 -0.114425 1.262111
Mo 4.965557 1.077880 1.262111
Mo 4.965557 -1.743143 1.262111
