56

Li 1.312606 1.198299 3.426216
Li 5.595420 3.193552 5.460466
Li 7.253024 5.590150 1.017125
Li 2.970209 7.585403 7.869557
O 3.169814 7.045601 1.071094
O 7.452629 6.129953 7.815588
O 5.395815 2.653750 3.372247
O 1.113001 1.738101 5.514435
O 5.161331 5.469875 0.730876
O 0.878517 7.705678 8.155806
O 3.404298 1.078024 3.712465
O 7.687113 3.313827 5.174217
O 7.774696 0.930194 3.254392
O 3.491882 3.461657 5.632290
O 0.790933 5.322045 1.188949
O 5.073748 7.853508 7.697733
O 1.343022 7.570778 3.643726
O 5.625837 5.604775 5.242956
O 7.222607 3.178927 0.799615
O 2.939793 1.212924 8.087067
O 2.623507 7.945069 5.857310
O 6.906321 5.230484 3.029372
O 5.942123 3.553218 7.472713
O 1.659308 0.838633 1.413969
O 2.292908 5.597783 4.888786
O 6.575722 7.577770 3.997896
O 6.272722 1.205932 8.441237
O 1.989907 3.185919 0.445445
O 0.329460 6.809732 5.837404
O 4.612275 6.365821 3.049278
O 8.236170 2.417881 7.492619
O 3.953355 1.973970 1.394063
O 3.191819 5.435662 7.259317
O 7.474634 7.739891 1.627365
O 5.373810 1.043811 6.070706
O 1.090996 3.348040 2.815976
O 1.179222 4.080214 6.527392
O 5.462036 0.311637 2.359290
O 7.386408 8.472065 6.802631
O 3.103593 4.703488 2.084051
P 4.037555 5.939408 1.610551
P 8.320370 7.236146 7.276131
P 4.528074 1.547557 2.832790
P 0.245260 2.844295 6.053892
P 1.635718 4.179365 1.679059
P 5.918533 0.212487 7.207624
P 6.929911 8.571216 2.764282
P 2.647096 4.604338 6.122400
P 2.582280 1.682395 0.575191
P 6.865095 2.709456 8.311492
P 5.983349 6.074246 3.868151
P 1.700534 7.101307 5.018532
Mn 3.189318 1.267040 5.897824
Mn 7.472133 3.124811 2.988858
Mn 5.376312 5.658891 7.432199
Mn 1.093497 7.516662 1.454483
