24

Li 4.745622 3.001269 -1.513210
Li 2.382216 1.506583 2.813620
O 2.104458 2.817982 -1.091049
O 2.299954 -0.032504 4.614358
O 3.671970 0.835199 -0.883413
O 0.732442 1.950279 4.406722
O 5.023379 1.689870 2.391458
O 4.827884 4.540356 -3.313949
O 4.944702 4.668264 -0.426351
O 2.183135 -0.160411 1.726760
O 3.455868 3.672653 2.183822
O 6.395395 2.557573 -3.106313
O 6.569165 2.613441 -0.211171
O 0.558673 1.894411 1.511580
Cu 2.210107 1.397736 0.373773
Cu 0.029488 0.018649 4.916491
Cu 4.917730 3.110116 0.926636
Cu 7.098350 4.489203 -3.616082
Cu 2.287316 1.446565 -1.866941
Cu 4.840522 3.061287 -3.950904
Ba 5.345878 -0.000118 0.886247
Ba 1.781959 4.507970 0.414162
Ba 5.486867 -0.178458 -2.654205
Ba 1.640971 4.686310 -3.163640
