16

Li 4.816235 1.211534 6.872371
Li 1.264156 1.944326 2.717199
O 2.610944 0.720735 1.751164
O 3.469446 2.435119 5.906335
O 3.887862 -0.216355 7.638210
O 2.192528 3.372209 3.483039
O 5.457831 -0.702709 1.751164
O 0.622559 3.858562 5.906335
O 1.001915 1.540988 4.661961
O 5.078476 1.614866 0.506790
Mn 1.832855 2.819010 5.051508
Mn 4.247536 0.336844 0.896337
Cs 3.687587 -0.524382 4.529951
Cs 2.392804 3.680236 0.374780
Cs 5.632928 2.467644 3.412493
Cs 0.447462 0.688210 7.567664
