36

Li 0.000000 0.000000 0.000000
Li 4.305972 5.879780 6.909051
O 3.237049 1.629365 2.977486
O 6.621577 6.406454 8.252945
O 3.581165 5.940396 8.580681
O 4.792977 8.129719 7.227419
O 8.124939 4.680507 9.407644
O 0.724807 5.818834 8.818472
O 6.296339 10.182550 6.076193
O 1.990367 5.353106 5.565156
O 5.030779 5.819164 5.237420
O 3.818967 3.629842 6.590682
O 5.374895 10.130196 10.840615
O 1.661545 3.634395 1.776410
O 0.017189 1.448714 3.133615
O 4.288783 3.065501 4.608745
O 2.644427 5.036192 3.429605
O 1.068923 2.825173 4.801291
O 6.950399 8.125165 12.041691
O 7.887137 5.940726 4.999629
O 8.594755 10.310846 10.684486
O 4.323161 8.694059 9.209356
O 5.967517 6.723369 10.388496
O 7.543021 8.934387 9.016810
O 2.315605 1.577010 7.741909
O 0.487005 7.079053 4.410457
P 2.152986 5.108548 9.170105
P 0.349077 5.772390 5.271238
P 6.458958 6.651012 4.647996
P 3.956895 2.276048 7.353392
P 8.262868 5.987170 8.546863
P 4.655049 9.483512 6.464709
Ti 1.218203 1.663449 1.954639
Ti 5.524175 7.543229 8.863690
Ti 7.393742 10.096112 11.863462
Ti 3.087769 4.216332 4.954411
