25

Fe 4.695368 0.759360 1.038564
Fe 3.353121 3.876533 2.495423
Fe 1.961731 5.228831 -0.135558
Fe 0.000000 0.000000 0.000000
Fe 6.086759 -0.592938 3.669546
P 5.587060 5.432439 0.622789
P 2.461429 -0.796546 2.911198
P 6.408320 1.910480 3.285086
P 1.640169 2.725413 0.248902
O 1.470861 3.836133 1.203239
O 5.170567 2.820197 2.771335
O 2.708236 5.693663 3.147417
O 6.623585 4.593207 -0.095618
O 1.979220 3.473393 4.034040
O 6.069269 1.162500 -0.500052
O 7.876461 2.588667 3.428845
O 4.003745 -0.219040 2.822700
O 2.877923 1.815696 0.762653
O 0.172028 2.047226 0.105143
O 6.577628 0.799760 2.330749
O 5.340253 -1.057770 0.386571
O 1.424905 0.042686 3.629606
O 4.044744 4.854933 0.711288
O 6.188894 -2.130936 2.602287
O 1.859595 6.766829 0.931700
