32

O 2.687661 1.065271 0.096357
O 6.921328 3.264304 0.730542
O 5.375747 1.033742 0.092613
O 0.037553 6.081784 9.349464
O 0.388676 1.579683 6.793872
O 1.934513 3.810031 7.432019
O 7.272531 -1.237750 -1.825251
O 1.771654 -0.148149 5.422296
O 1.088663 3.373275 1.792607
O 0.936879 6.677731 5.106472
O 3.447418 4.936373 5.691877
O 1.939009 2.000612 3.563192
O 2.730873 4.338132 3.199464
O 6.221392 1.470697 5.731446
O 3.594363 2.381814 5.842602
O 3.715671 2.462192 1.681693
O 5.538351 4.992136 2.101878
O 4.578985 0.506157 4.324476
O 5.370863 2.843785 3.961076
O 3.862572 -0.092318 1.832671
O 6.373191 -1.833693 2.417896
O 4.622716 3.778488 7.427960
P 3.380916 3.781141 6.637688
P 2.317312 3.076509 2.601838
P 4.992582 1.767595 4.922414
P 3.929162 1.062734 0.886659
P 0.284599 0.188590 6.192093
P 7.025033 4.655150 1.332252
Ni 6.452596 2.461161 -0.849529
Ni 4.554415 4.832659 3.835356
Ni 2.755457 0.011458 3.688941
Ni 0.857496 2.382682 8.373845
