20

O 2.122818 -0.255392 7.531722
O 4.887498 -0.844733 6.810115
O 0.084443 5.591042 2.710822
O 0.728856 5.912366 5.526716
O 0.765529 2.852660 0.511969
O 1.356995 2.913395 2.980883
O 2.173104 3.420745 5.578974
O 2.849118 5.001696 3.432420
O 4.206402 1.893653 4.611270
O 2.066431 1.005399 5.326581
O 4.243080 -1.166055 1.427423
O 2.798827 1.325568 1.479673
O 3.614940 1.832902 7.080168
O 2.905505 3.740912 1.227296
P 1.183803 0.235628 6.349223
P 3.788128 4.510691 2.249930
P 1.916542 2.660743 1.563790
P 3.055394 2.085555 5.663092
Fe 3.902174 0.254574 0.083404
Fe 1.069752 4.491741 4.182689
