34

Li 3.647033 6.151127 0.953323
Li 7.423458 1.489683 1.972000
O 0.321252 1.748305 6.571559
O 6.668806 -1.717578 2.026842
O 5.673872 1.211770 0.250828
O 3.943745 0.017593 1.729140
O 0.100668 6.389828 9.490963
O 0.801547 6.889891 5.347817
O 1.826110 3.949240 7.159482
O 3.530425 5.142591 5.652222
O 4.474804 3.979745 7.473489
O 7.386636 -1.238446 -2.123623
O 2.863538 4.680710 2.937154
O 3.742065 2.582759 5.721852
O 1.133351 3.486606 1.817648
O 2.056311 2.352633 3.654078
O 5.566005 5.370417 1.957647
O 3.026278 1.155350 -0.107862
O 5.400997 2.836495 3.722217
O 6.342413 1.671603 5.543791
O 3.727913 2.572984 1.650066
O 4.620391 0.500102 4.391815
O 7.154729 3.409384 0.796558
O 1.907678 -0.209906 5.417072
P 4.111881 1.197222 0.806246
P 7.145943 4.932102 1.295644
P 5.064725 1.867005 4.771705
P 2.406773 3.301921 2.591075
P 3.372235 3.956144 6.573188
P 0.330016 0.227768 6.075655
Mo 0.886752 2.355685 8.248864
Mo 4.774943 5.043836 3.780879
Mo 2.698762 0.119016 3.599096
Mo 6.591676 2.801360 -0.886263
