32

Li 0.000000 0.000000 0.000000
Li 3.549234 3.204620 3.728385
Li 3.549234 0.000000 3.728385
Li 0.000000 3.204620 0.000000
O 0.916476 6.031666 5.620212
O 6.181991 0.377561 1.836550
O 6.181991 2.827059 1.836550
O 6.317586 1.602307 6.099190
O 0.393305 1.602307 3.627465
O 0.780881 4.806914 1.357587
O 0.916476 3.582169 5.620212
O 2.768353 1.602307 5.085964
O 1.380787 1.602307 0.033466
O 5.717681 4.806914 7.423303
O 2.632758 0.377561 1.891835
O 2.632758 2.827059 1.891835
O 6.705163 4.806914 3.829312
O 3.155929 4.806914 7.355849
O 3.942538 1.602307 0.100927
O 4.330115 4.806914 2.370798
O 4.465710 3.582169 5.564935
O 4.465710 6.031666 5.564935
O 4.930020 1.602307 3.694926
O 2.168447 4.806914 3.761850
P 0.900043 4.806914 4.672076
P 2.649191 1.602307 0.943691
P 4.449277 4.806914 6.513078
P 6.198424 1.602307 2.784686
Cr 6.133601 4.806914 2.017489
Cr 4.514100 1.602307 5.745873
Cr 2.584367 4.806914 1.710889
Cr 0.964866 1.602307 5.439281
