38

Mn 1.561924 1.561836 6.840291
Mn 2.540487 2.550216 9.893128
Mn 4.225791 0.845351 4.986850
Mn 5.212375 5.210420 9.732230
Mn 0.857242 4.233738 4.995923
Mn 3.517886 0.131621 11.240729
Mn 6.642268 3.254223 5.331513
Mn 5.926221 5.918208 13.273037
P 0.001409 0.000230 0.001045
P 5.080405 1.693965 8.286954
P 2.540338 5.287963 11.262836
P 3.594989 4.233138 6.365406
P 5.926316 3.176763 11.900531
P 1.484346 0.845896 3.614569
O 0.530811 2.488602 8.432162
O 1.808698 3.875835 11.352905
O 2.988586 4.963666 5.263399
O 4.551546 2.195181 11.145778
O 2.894630 0.920343 3.192652
O 2.182741 3.501731 6.455530
O 6.048937 0.972096 4.326353
O 5.806329 3.228905 8.602223
O 0.502538 6.244854 6.248767
O 4.577759 3.148868 5.890042
O 1.536468 0.725901 10.110934
O 3.544052 1.858673 8.414390
O 3.622124 5.975952 12.572320
O 6.000994 4.587034 11.478724
O 5.799697 6.607968 15.191109
O 6.053266 0.967767 9.223697
O 4.283157 5.314811 7.674922
O 0.795298 2.224071 3.534796
O 3.270773 4.681446 10.160727
O 1.456229 6.270911 10.787643
O 2.088941 0.773665 5.045542
O 5.854184 3.781370 13.331559
O 0.165864 5.237416 3.517324
O 4.915530 0.718714 6.904855
