14

Li 5.257205 1.570779 2.477248
Li 1.750134 3.381437 -0.002345
Cu 1.754847 1.433384 2.365349
Cu 5.261919 3.518832 4.844943
P 7.011548 0.942729 0.076823
P 3.504476 4.009487 2.517971
O 4.810643 3.432990 1.912901
O 3.503670 3.703698 4.050659
O 5.734497 1.566738 4.382931
O 1.303571 1.519226 4.354049
O 3.498682 0.599699 2.275061
O 2.227425 3.385478 1.903338
O -0.003402 1.248518 1.571066
O 7.005754 4.352518 4.754654
