56

Li 4.946736 6.731813 -2.092660
Li 3.309777 0.247779 1.558062
Li 6.549690 5.483519 0.302243
Li 4.912741 -1.000510 3.952967
O 2.500738 -0.714768 3.974177
O -0.017836 2.449985 6.758895
O 1.708983 6.977573 3.715259
O 1.957303 5.011208 5.232489
O 1.415979 5.804749 0.210174
O 0.394941 1.463050 4.367855
O 1.819419 0.238834 6.440737
O 3.155496 2.869065 5.494005
O 3.682180 4.562444 3.546343
O 2.868211 4.473976 1.609848
O 2.945608 7.328852 -2.689532
O 0.847935 1.013000 0.833217
O 2.542690 3.877865 -0.415191
O 4.376425 5.966461 -0.260352
O 3.535756 2.328636 2.835365
O 0.738968 7.048428 1.806426
O 5.687962 4.276494 1.900148
O 5.003340 0.610719 4.779801
O 4.856128 5.120579 -2.919496
O 4.171525 1.454815 -0.039840
O 7.358739 6.446072 -2.113879
O 6.323721 3.402659 -0.975063
O 5.483053 -0.235157 2.120658
O 7.316787 1.853448 2.275494
O 9.120510 -1.317124 0.053872
O 6.913870 -1.597539 4.549835
O 6.991267 1.257328 0.250466
O 6.177288 1.168854 -1.686038
O 6.703981 2.862239 -3.633699
O 8.040059 5.492470 -4.580430
O 9.464536 4.268254 -2.507540
O 8.443509 -0.073449 1.650122
O 7.902174 0.720096 -3.372182
O 8.150495 -1.246269 -1.854935
O 9.877303 3.281313 -4.898582
O 9.011543 4.718304 1.027089
P 0.777124 7.904089 2.841376
P 1.055605 7.270288 0.366355
P 1.623836 6.550191 -3.108850
P 3.489308 4.350308 -3.294141
P 2.911237 5.009827 0.193169
P 4.035642 3.800759 2.455874
P 5.823836 1.930545 -0.595559
P 6.948240 0.721486 1.667134
P 9.082353 -2.172776 -0.981074
P 8.235651 -0.818890 4.969163
P 8.803872 -1.538984 1.493952
P 6.370169 1.380996 5.154448
V 2.704957 1.176573 4.596223
V 2.095356 1.993194 -0.899005
V 7.764112 3.738105 2.759310
V 7.154510 4.554725 -2.735918
