36

Li 1.593376 6.140199 9.988882
Li 5.728956 -1.698178 5.028763
O 5.096929 3.861061 10.347457
O 0.844140 5.294980 7.606602
O 1.421089 4.177963 5.494412
O 3.670751 4.610659 7.627215
O 2.196956 4.112320 10.246112
O 0.894840 1.876661 1.889015
O 1.548629 2.968179 7.130576
O 5.518644 4.413054 5.908452
O 4.212948 3.976088 12.326986
O 3.765312 2.417379 4.654313
O 0.311016 4.406795 3.236368
O 0.222709 0.804615 6.383845
O 7.099624 3.637406 8.633800
O 2.225403 0.580961 4.670187
O 3.557035 2.024638 10.363330
O 3.109385 0.465940 2.690653
O 7.011317 0.035220 11.781274
O 5.773703 1.473850 7.887072
O 6.427485 2.565364 13.128627
O 5.125377 0.329702 4.771533
O 3.651581 -0.168637 7.390421
O 5.901244 0.264059 9.523241
O 6.478192 -0.852958 7.411043
O 1.803688 0.028968 9.109202
P 7.318320 2.253648 8.015268
P 1.965219 4.368553 7.067948
P 0.004013 2.188374 7.002376
P 5.130568 3.385099 4.696309
P 3.762493 3.545602 10.767146
P 5.357114 0.073468 7.949697
P 2.191765 1.056916 10.321333
P 3.559840 0.896420 4.250499
V 0.000000 3.449062 1.349386
V 7.322325 4.442017 10.606546
