72

Li 12.868790 8.303956 2.327851
Li 6.434389 4.219731 6.982488
Li 0.000013 0.045235 6.982284
Li 6.434389 4.129402 2.327656
Ni -0.000051 3.089284 6.982220
Ni 6.434440 7.263863 6.982406
Ni 6.434440 1.085286 2.327747
Ni 0.000064 5.259686 2.327223
P 11.089743 6.850344 4.604308
P 1.934207 3.866421 0.088899
P 8.368686 0.308258 9.221088
P 1.779073 6.850407 0.050817
P 1.779048 1.498764 4.705929
P 4.655148 5.673159 4.705732
P 1.934194 4.482675 4.743758
P 11.089781 1.498734 9.259252
P 8.368699 8.040875 4.565965
P 4.655148 2.675932 0.050986
P 10.934584 4.482678 9.221217
P 4.500156 8.040841 0.089028
P 4.500079 0.308241 4.744179
P 10.934635 3.866408 4.566404
P 8.213630 5.673134 9.259139
P 8.213694 2.675965 4.604431
O 9.554006 5.019763 8.627494
O 7.785626 3.373162 5.841471
O 9.749122 0.845157 8.627666
O 1.351250 7.547637 8.123264
O 0.911845 3.843016 1.193761
O 5.522557 8.017608 1.193859
O 2.305987 2.977621 4.341190
O 0.911858 4.506150 5.848553
O 9.749084 7.503957 3.972637
O 12.047195 6.787653 3.434370
O 1.610711 3.070853 8.165948
O 8.740453 1.196993 4.969064
O 1.351250 0.801398 3.468663
O 4.823665 7.245350 8.165873
O 5.612973 5.735997 5.876097
O 12.047220 1.561488 8.089422
O 5.522531 0.331537 5.848972
O 5.083190 3.373173 8.123556
O 9.554031 3.329317 3.972786
O 8.740440 7.152124 0.313995
O 3.119694 7.503942 0.682422
O 5.083177 4.975937 3.468691
O 11.258080 3.070916 5.799017
O 8.045100 1.103783 1.144197
O 4.128351 1.196975 8.996121
O 3.119694 0.845151 5.337535
O 8.045061 7.245357 5.798866
O 3.314772 5.019774 5.337368
O 1.610672 5.278241 3.511108
O 10.562791 5.371504 4.968982
O 7.785613 4.975935 1.186550
O 7.255817 2.613136 3.434019
O 3.314798 3.329319 0.682621
O 10.562804 2.977656 0.314223
O 11.258118 5.278238 1.144102
O 4.128364 7.152122 4.341090
O 0.821583 6.787611 1.220769
O 11.517553 7.547693 5.841453
O 11.956959 4.506058 8.116392
O 2.306012 5.371460 8.995902
O 7.346221 0.331533 8.116238
O 7.346272 8.017537 3.461154
O 7.255779 5.735992 8.088723
O 5.612999 2.613132 1.221439
O 11.517540 0.801437 1.186843
O 0.821596 1.561472 5.875718
O 11.956920 3.842974 3.461600
O 4.823742 1.103726 3.511333
