80

Li 0.713488 8.678897 0.782780
Li 0.697284 9.464879 6.046728
Li 1.812293 2.015060 6.803577
Li 2.463212 3.968740 2.454220
Li 3.578221 9.026812 1.697371
Li 3.562009 9.812806 5.132145
Li 4.988993 2.154794 3.566577
Li 4.972789 2.940788 7.001342
Li 6.087798 7.998860 6.244502
Li 6.738726 9.952539 1.895145
Li 7.853726 2.502721 2.651986
Li 7.837514 3.288703 7.915925
O 1.465019 5.416459 1.533548
O 7.826192 1.384717 0.891557
O 7.920322 4.584467 2.780387
O 7.898756 9.973716 3.553329
O 7.691120 4.792458 5.429337
O 7.434017 -0.311289 5.327875
O 7.363232 1.710868 6.807744
O 7.291301 9.558699 6.470712
O 0.427833 5.375626 7.499657
O 0.724818 10.582883 7.807157
O 0.630688 7.383133 5.918327
O 0.652262 1.993883 5.145385
O 0.859890 7.175142 3.269377
O 1.116993 12.278889 3.370830
O 1.187778 10.256731 1.890961
O 1.170582 3.044242 8.454132
O 1.259709 2.408901 2.228002
O 8.123186 6.591973 1.199057
O 1.489928 0.643513 0.327550
O 1.686422 9.994492 4.424122
O 2.589092 8.497198 0.074757
O 2.785577 5.340275 4.676898
O 2.810486 0.567341 5.882905
O 3.087727 8.234959 6.240318
O 3.015796 3.574899 6.577367
O 3.158512 6.212814 7.720187
O 3.104923 2.939558 4.104775
O 3.415615 11.316549 7.618734
O 3.644817 11.108557 1.568970
O 3.550687 7.908808 3.457800
O 3.623243 3.989929 0.796028
O 3.847672 0.608174 3.150300
O 4.703338 11.359426 5.548405
O 4.927767 7.977671 7.902686
O 5.000323 4.058792 5.240923
O 4.906202 0.859042 7.129744
O 5.135395 0.651051 1.079989
O 5.446078 9.028042 4.593930
O 5.392498 5.754786 0.978527
O 5.535223 8.392700 2.121355
O 5.463283 3.732640 2.458396
O 5.740524 11.400259 2.815817
O 5.765433 6.627325 4.021807
O 5.961927 3.470401 8.623957
O 6.864597 1.973108 4.274600
O 7.061082 11.324087 8.371172
O 7.085991 6.551141 7.165174
O 7.380428 8.923358 0.244573
P 8.225268 5.763442 6.492694
P 7.678405 1.206499 5.341028
P 7.702382 10.033566 7.875398
P 5.148110 4.237023 0.991671
P 5.124124 7.917822 3.526032
P 4.601247 12.187957 2.143328
P 3.949771 -0.220358 6.555377
P 3.426886 4.049778 5.172681
P 0.325734 6.204158 2.206020
P 0.872605 10.761101 3.357686
P 3.402900 7.730577 7.707043
P 0.848619 1.934034 0.823325
Mn 2.126457 11.173324 0.355047
Mn 2.149040 7.318367 4.704404
Mn 2.153598 4.747244 8.310664
Mn 2.121899 1.236544 3.961307
Mn 6.429103 10.731057 4.737407
Mn 6.397404 7.220343 0.388050
Mn 6.401962 4.649234 3.994310
Mn 6.424545 0.794276 8.343667
