22

Li 1.105897 6.010517 2.028515
Li 3.925962 2.974945 7.178489
C 3.650211 4.546934 1.026414
C 1.381648 1.511363 8.180590
O 0.907747 3.402536 5.932090
O 4.829518 4.572882 1.682519
O 2.334888 1.620230 7.304589
O 2.696971 4.655802 1.902414
O 3.985006 2.727740 3.204687
O 0.691674 4.646464 3.668253
O 1.046853 5.763312 6.002316
O 4.340185 1.610893 5.538751
O 4.124112 0.366964 3.274914
O 2.095100 1.454719 4.278665
O 3.438813 4.401020 8.391970
O 1.593046 1.365449 0.815033
O 2.936759 4.490290 4.928338
O 0.202341 1.537311 7.524484
P 3.632076 1.546927 4.140117
P 1.399783 4.582499 5.066886
Co 3.978983 4.551894 3.365471
Co 1.052876 1.516323 5.841533
