42

Li 1.539710 5.422752 2.486244
Li 7.150587 -2.241943 7.278058
Li 5.987557 1.865386 7.278034
Li 5.610968 2.379955 2.486250
Li 1.916299 -0.631949 7.278050
Li 0.376687 1.471249 2.486258
O 0.902512 2.795609 7.935529
O 5.018263 -0.336109 1.068869
O 6.751883 1.682344 9.120885
O 6.242415 0.460143 6.078155
O 5.420227 -1.597509 6.078162
O 6.624762 -0.847140 3.143720
O 0.775384 5.342128 4.329086
O 1.284844 4.051665 1.286356
O 4.135480 3.338361 1.286335
O 2.846466 4.313873 7.935521
O 2.509132 3.091294 3.361675
O 5.018135 -0.336195 8.153475
O 2.509004 3.091397 5.860678
O 0.911100 1.005021 4.329147
O 2.107040 1.883846 1.286362
O 6.616174 -2.636584 9.120947
O 1.686499 -0.054199 9.120893
O 3.778033 2.164548 7.935451
O 3.391786 0.128770 6.078135
O 5.840760 2.926914 4.329092
O 4.680793 0.931583 3.143712
O 3.749226 -1.092930 3.143643
O 7.527312 2.755135 1.630271
O -0.000045 -0.000017 6.422072
P 2.509116 3.091308 1.772483
P 7.527244 2.755169 4.877131
P 2.509004 3.091332 7.453771
P 0.000023 6.518823 0.085331
P 5.018263 -0.336168 2.661962
P 5.018143 -0.336186 6.564283
Fe 7.151754 -0.082704 9.401433
Fe 4.409059 -1.879388 9.401268
Fe 3.493766 0.953603 9.401339
Fe 3.118215 1.466493 4.609468
Fe 4.033501 4.176857 4.609549
Fe 0.375513 3.630642 4.609634
