46

V 1.794961 5.581207 1.285901
V 7.773165 5.581207 3.890332
V 11.363088 1.242477 1.306638
V 17.341292 1.242477 3.911070
P 1.464995 0.859061 3.881996
P 2.506313 3.653516 3.851371
P 4.784063 4.961405 0.010369
P 7.061794 3.653516 1.324867
P 8.103112 0.859061 1.294227
P 11.033122 5.964623 3.902744
P 12.074459 3.170161 3.872104
P 17.671258 5.964623 1.314964
P 16.629921 3.170161 1.345599
P 14.352190 1.862286 0.031106
O 0.125247 1.465591 3.488275
O 1.439046 0.271296 0.133883
O 1.623558 4.313421 4.883882
O 2.243534 3.988000 2.407012
O 2.084569 6.745396 2.852251
O 2.527765 2.079286 4.000819
O 3.761824 5.746231 0.785493
O 4.061000 3.947815 4.152857
O 5.507127 3.947815 1.023366
O 5.806303 5.746231 4.390735
O 7.040361 2.079286 1.175404
O 7.483557 6.745396 2.323977
O 7.324592 3.988000 2.769216
O 7.944569 4.313421 0.292347
O 8.129099 0.271296 5.042340
O 9.442880 1.465591 1.687958
O 9.693373 5.358086 3.509013
O 11.007173 6.552381 0.154620
O 11.191685 2.510270 4.904624
O 11.811661 2.835691 2.427744
O 11.652696 0.078281 2.872994
O 12.095892 4.744398 4.021556
O 13.329950 1.077446 0.806225
O 19.011006 5.358086 1.708695
O 15.075253 2.875862 1.044103
O 15.374429 1.077446 4.411473
O 16.608488 4.744398 1.196142
O 17.051684 0.078281 2.344709
O 16.892719 2.835691 2.789949
O 17.512695 2.510270 0.313079
O 17.697226 6.552381 5.063088
O 13.629127 2.875862 4.173605
