44

Li 2.633810 3.717210 4.321409
Li 4.424202 4.580541 0.683556
Li 6.162817 0.431666 -1.453587
Li 0.895196 7.866086 6.458553
V 6.176827 3.504672 -1.932280
V 2.647821 0.644204 3.842716
V 4.410192 7.653547 1.162249
V 0.881186 4.793080 6.937246
P 4.815534 6.328919 3.904421
P 5.771485 2.180043 3.603028
P 1.286528 6.117708 1.401938
P 6.560797 2.221499 0.819568
P 0.497216 6.076253 4.185397
P 4.026222 6.370375 -1.589600
P 2.242479 1.968832 1.100545
P 3.031791 1.927377 6.594565
O 0.487349 7.381049 1.297018
O 4.673576 2.054523 -1.806463
O 2.384437 6.243228 6.811429
O 6.570664 0.916702 3.707948
O 2.569907 0.799115 5.773176
O 6.473193 6.237860 3.610818
O 4.260725 7.521704 3.133857
O 4.113826 2.088984 3.896630
O 0.584820 2.059892 1.394148
O 4.752428 5.018721 -1.403970
O 5.913443 6.203399 1.036432
O 4.488106 7.498637 -0.768210
O 4.562737 6.932439 5.308300
O 1.144570 2.094352 3.968534
O 6.024282 2.783564 2.199148
O 2.944187 6.208768 1.108335
O 3.041658 3.232173 1.205465
O 2.305585 3.279031 6.408935
O 5.834591 0.869845 0.633939
O 2.495276 1.365312 -0.303335
O 1.033731 5.514188 2.805818
O 2.797288 0.776047 1.871109
O 4.016355 5.065578 3.799501
O 1.223422 7.427907 4.371027
O 0.731718 4.924923 0.631374
O 6.098914 3.349761 -0.001821
O 6.326295 3.372829 4.373592
O 0.959099 4.947991 5.006786
