30

O 0.802722 0.840166 6.812015
O 0.802722 3.392547 6.812015
O 1.089369 6.349057 6.618867
O 1.105015 5.067402 4.050058
O 1.105015 7.630703 4.050058
O 1.462194 2.116352 3.693474
O 1.495724 0.830829 1.168504
O 1.495724 3.401867 1.168504
O 2.461272 2.116352 8.033226
O 1.978011 6.349057 1.990610
O 2.824402 2.116352 5.641054
O 2.341131 6.349057 -0.401560
O 3.306688 5.063534 6.463159
O 3.306688 7.634580 6.463159
O 3.340204 6.349057 3.938193
O 3.999690 7.625251 0.819648
O 3.697383 3.398007 3.581609
O 3.713039 2.116352 1.012797
O 3.999690 5.072871 0.819648
O 3.697383 0.834698 3.581609
P 1.577932 2.116352 6.846299
P 1.883485 6.349057 3.566901
P 2.592104 6.349057 6.933869
P 2.210308 2.116352 0.697794
P 2.918923 2.116352 4.064773
P 3.224471 6.349057 0.785366
V 0.186799 0.655350 2.926433
V 0.186799 3.577355 2.926433
V 4.615613 4.888063 4.705239
V 4.615613 7.810060 4.705239
