60

Li 0.917038 7.674282 0.000000
Li 5.243699 4.770399 6.325175
O 0.636159 1.284332 5.494060
O 0.118585 5.577186 9.916774
O 0.549660 5.650627 3.334594
O 2.919455 8.600561 9.315756
O 3.024922 8.640386 5.254538
O 0.539666 5.546716 7.395812
O 1.839648 6.587897 1.306275
O 2.327298 7.194928 11.344075
O 2.816299 6.763981 3.717597
O 2.435906 6.290466 8.932754
O 5.051699 8.002421 3.860368
O 6.139120 9.356045 10.185531
O 0.725037 2.616538 2.464820
O 7.142977 3.860112 2.607579
O 0.273593 1.500016 8.761721
O 2.842778 4.698161 2.436559
O 4.600254 6.885891 10.213792
O 7.169448 10.084047 3.888629
O 2.867050 8.998492 2.733589
O 3.176477 4.446551 11.819235
O 4.962829 6.670201 0.831115
O 7.503146 9.832428 7.156291
O 2.588326 2.723368 4.662021
O 2.258816 2.313191 10.987184
O 6.914988 8.109243 1.663154
O 6.585486 7.699076 7.988330
O 7.395196 7.866604 5.612227
O 2.655883 1.967057 7.038111
O 6.982544 7.352932 11.937415
O 3.068526 2.480727 0.712936
O 4.445264 2.673309 9.058752
O 7.193712 6.094609 3.591599
O 7.246116 5.696678 9.659770
O 4.876339 2.746750 2.990594
O 4.866335 2.642853 11.579714
O 7.351583 5.736512 1.070637
O 6.166318 3.684034 5.018900
O 6.653960 4.291046 7.631451
O 6.762576 3.386586 10.042772
O 1.812442 3.970166 8.789995
P 1.178524 5.271933 8.857953
P 3.503045 8.165509 3.792398
P 1.942294 5.859523 2.685543
P 3.118352 7.323499 9.964808
P 6.523666 7.043424 0.689280
P 7.580879 8.359460 7.014455
P 3.254210 2.973583 11.961071
P 2.196988 1.657552 5.635896
P 7.829706 5.261643 2.532777
P 7.445013 4.419625 9.010718
P 6.268955 2.955657 3.639632
P 5.505194 2.368061 10.117573
V 3.306285 6.070706 0.000000
V 2.354331 2.128071 8.991136
V 2.810163 2.695495 2.665960
V 6.681001 7.513948 9.984391
V 7.136825 8.081370 3.659215
V 7.632964 3.166837 6.325175
