44

Li 0.906166 7.900246 6.502970
Li 6.078213 0.396161 -1.546080
Li 4.398352 4.544353 0.775222
Li 2.586020 3.752038 4.181654
O 0.492845 7.309061 1.244900
O 5.762212 0.861241 0.652608
O 4.662508 2.057001 -1.834208
O 6.038905 3.328242 -0.040964
O 0.945467 4.968166 4.997858
O 2.321871 6.239398 6.791090
O 1.222153 7.435167 4.304280
O 2.270033 3.286967 6.380344
O 1.170315 2.091199 3.893535
O 0.981074 5.470065 2.805891
O 2.546719 0.819958 5.686767
O 2.953370 6.121963 1.152672
O 0.538823 1.973763 1.325767
O 0.761066 4.838950 0.638447
O 2.731113 0.690758 1.839999
O 5.814050 6.205201 1.063362
O 3.985024 5.135529 3.723345
O 4.031009 2.174445 3.804209
O 4.714346 5.009432 -1.423462
O 2.999348 3.160870 1.233539
O 2.511112 1.321865 -0.327441
O 4.253259 7.605649 3.116894
O 6.223299 3.457441 4.318433
O 6.445549 6.322636 3.631118
O 6.491534 0.987330 3.711982
O 4.437660 7.476441 -0.729885
O 6.003298 2.826343 2.151002
O 4.473253 6.974534 5.284329
P 2.197130 1.906637 1.081497
P 4.787249 6.389754 3.875384
P 5.689309 2.241563 3.559943
P 3.973786 6.348098 -1.560516
P 0.481600 6.096501 4.167224
P 3.010586 1.948302 6.517409
P 1.295056 6.054837 1.396937
P 6.502779 2.199898 0.789666
Cr 6.136902 3.489366 -1.922877
Cr 4.339663 7.637574 1.152011
Cr 2.644716 0.658825 3.804870
Cr 0.847470 4.807033 6.879754
