40

Co 5.188641 3.982204 -0.142322
Co 1.901226 0.053238 1.268007
Co 5.188641 7.804696 4.125752
Co 1.901226 3.875729 5.536081
P 6.555894 5.793655 1.852987
P 4.766815 2.364515 5.943861
P 2.323052 6.293482 3.717972
P 0.533973 1.864688 7.808846
P 4.766815 1.564452 1.675787
P 2.323052 5.493419 -0.550102
P 0.533973 2.064279 3.540781
P 6.555894 5.993246 -2.415096
O 2.325526 5.351449 6.543842
O 7.075552 0.653348 3.976035
O 5.798377 5.456172 0.697658
O 5.798377 6.330729 4.965731
O 4.764341 2.506484 -1.150083
O 0.791605 5.058678 0.188115
O 5.495810 6.691133 2.656313
O 1.291490 2.401762 4.696101
O 3.793965 3.319199 5.325215
O 4.599005 3.063423 1.424929
O 3.295902 7.248166 4.336618
O 6.298262 1.129712 0.937570
O 3.793965 0.609768 1.057141
O 1.291490 1.527205 0.428028
O 2.490862 6.992390 -0.299243
O 1.594057 2.762166 7.005520
O 4.764341 1.422482 3.117991
O 6.298262 2.799255 5.205644
O 2.325526 6.435451 2.275768
O 2.490862 4.794510 3.968830
O 0.014314 7.204586 1.417732
O 0.014314 4.582315 5.685798
O 4.599005 0.865544 5.693003
O 0.791605 6.728222 4.456189
O 5.495810 5.095768 -1.611761
O 3.295902 4.538735 0.068544
O 1.594057 1.166801 2.737446
O 7.075552 3.275619 -0.292047
