20

O 0.137347 2.686124 5.533792
O 0.658513 5.450170 5.750646
O 0.787683 0.408963 2.818840
O 1.344318 2.882842 2.898044
O 2.000706 5.406154 3.349829
O 2.789179 3.415206 4.952399
O 2.893707 1.159568 3.755145
O 1.979173 5.177844 0.937440
O 2.083711 7.433474 -0.259824
O 2.872183 1.387894 1.342759
O 4.735542 6.704384 -0.841217
O 4.085197 4.427231 1.873751
O 4.214382 1.431902 -1.058060
O 3.528571 6.901110 1.794544
P 1.923417 1.469682 2.657764
P 1.135554 6.243802 0.177993
P 3.737331 2.225526 4.514584
P 2.949462 5.487941 2.034814
V 1.023716 4.049024 4.415137
V 3.849173 0.030748 0.277437
