78

Li 2.173941 6.911014 2.124776
Li 10.859595 1.038880 7.252350
Li 10.860705 6.929646 5.573778
Li 10.868489 2.866611 2.956802
Li 6.533929 2.879062 5.551223
Li 2.265194 2.935951 8.322434
Li 6.422629 5.049784 3.908870
Li 2.216622 5.082515 6.634233
Li 6.562270 1.073584 1.261633
O 7.385062 7.331252 1.056804
O 9.939935 0.521471 5.684411
O 7.631172 5.153480 7.959839
O 12.012462 5.088265 5.185842
O 9.725953 2.846050 7.633178
O 12.192107 2.401609 6.518008
O 11.825829 7.436892 7.158618
O 11.720209 5.031370 8.059836
O 10.045293 1.016657 9.296808
O 3.093066 7.008517 0.215402
O 1.311668 3.040313 1.453138
O 1.376578 0.647978 2.309146
O 0.822060 5.586323 2.861581
O 3.349833 5.188881 1.846912
O 1.089785 2.835212 4.260619
O 5.354746 2.795403 1.516743
O 3.450463 2.399832 3.140271
O 3.011739 7.461511 3.831166
O 7.870843 2.392058 0.490946
O 9.567544 5.528918 6.322302
O 3.005391 5.062891 4.602345
O 1.361049 1.061681 5.852600
O 7.410974 4.932449 1.907801
O 5.624743 0.976567 3.150116
O 1.262887 3.462329 6.753680
O 0.887022 6.442137 7.405844
O 5.559951 3.404448 3.994980
O 5.184857 6.470604 4.573623
O 10.025533 3.425961 1.234659
O 3.331431 6.868727 6.278325
O 9.559002 6.394154 1.864982
O 7.670418 6.848099 3.509980
O 11.968069 6.808065 0.805223
O 1.052302 1.117121 8.705642
O 5.377680 1.109814 5.938322
O 3.534820 1.522506 7.644337
O 9.736323 1.143469 3.209770
O 3.154528 4.578457 8.211980
O 7.819816 1.537364 4.826323
O 7.402941 4.538264 5.470082
O 12.241645 1.561229 2.180890
O 11.668125 4.625456 2.742850
O 5.264002 5.587946 9.074492
O 5.707390 2.926173 7.606693
O 11.757144 7.010959 3.597443
O 9.994188 2.944986 4.850430
O 5.707468 0.526512 8.388641
O 7.355859 6.932543 6.372889
P 5.059203 2.421949 2.998438
P 0.665113 2.518710 5.782990
P 3.649347 6.460608 4.814418
P 7.976110 6.351607 2.092133
P 5.072942 1.525804 7.399087
P 9.379148 1.497426 4.701976
P 8.032975 5.467153 6.427572
P 12.343177 5.585387 3.756780
P 9.411982 2.416314 9.087308
P 0.722670 1.615242 1.291093
P 3.654388 5.561574 0.367368
P 12.415636 6.491859 8.130794
Cr 10.842499 3.925639 6.357014
Cr 6.563132 6.835617 8.234375
Cr 10.901898 0.067590 2.059977
Cr 6.504687 0.018906 4.689490
Cr 2.236827 7.989771 7.528516
Cr 10.900840 5.128619 1.071268
Cr 2.155173 1.152832 3.979825
Cr 6.530952 3.885384 0.349741
Cr 2.171133 4.089841 3.010191
