40

V 1.627798 0.399898 2.825261
V 1.533571 3.417113 10.504605
V 4.663258 4.625447 15.388925
V 4.757486 1.608232 7.709581
P 2.181707 3.705423 3.782257
P 5.559438 4.610957 9.668446
P 0.731618 0.414388 8.545740
P 4.825152 2.725458 10.939530
P 1.465904 2.299887 7.274657
P 4.878714 0.635352 4.525690
P 4.109343 1.319923 14.431927
P 1.412342 4.389993 13.688497
O 5.732725 3.903065 10.865325
O 1.371564 3.511592 14.692267
O 1.877711 3.371557 8.710039
O 1.608328 5.380629 11.183263
O 1.138889 3.393043 12.213202
O 5.530116 5.025779 14.106048
O 4.413346 1.653788 9.504147
O 4.287531 2.697906 14.272234
O 5.799247 2.267698 12.139407
O 4.919493 1.513753 3.521919
O 2.588889 0.847179 14.122541
O 3.702167 4.178166 4.091645
O 2.876416 5.079180 14.255532
O 4.868315 0.256510 13.551064
O 1.422741 4.768835 4.663123
O 4.845925 3.560481 8.269444
O 3.414641 -0.053835 3.958655
O 3.505050 3.340759 11.313944
O 6.063364 -0.337688 4.448756
O 0.760941 -0.000434 4.108138
O 0.558331 1.122280 7.348862
O 4.682729 -0.355284 7.030924
O 2.003525 2.327439 3.941952
O 1.445131 1.464864 9.944742
O 5.152168 1.632302 6.000985
O 2.786007 1.684586 6.900243
O 0.491810 2.757647 6.074779
O 0.227692 5.363033 13.765431
