36

Li 1.870120 6.742053 6.065284
Li 3.370097 13.595794 0.160706
O 1.521305 12.207525 3.402847
O 5.214964 8.753479 0.615147
O 0.025253 1.899724 5.610842
O 0.243733 10.046892 6.837303
O 0.145725 12.205551 5.596398
O 0.367947 7.039437 3.446460
O 0.964955 5.230594 6.665769
O 1.003728 4.708009 3.799415
O 1.094305 9.351455 3.819352
O 1.449943 1.936268 3.440171
O 3.283518 10.730637 4.948191
O 1.956699 3.876895 1.277813
O 1.965062 10.356504 1.301823
O 1.847949 8.194007 -0.094077
O 5.094491 5.351796 0.629607
O 3.275165 3.502749 4.924164
O 4.996484 3.193137 -0.611298
O 3.718912 5.353770 2.823157
O 3.790284 8.790023 2.785831
O 4.145922 2.497700 2.406636
O 4.236499 11.561764 2.426580
O 4.275272 12.084363 -0.439774
O 4.872275 0.185682 2.779544
O 3.392268 1.340252 6.320081
P 4.487496 11.291658 5.608570
P 5.124340 5.523071 2.204690
P 0.040758 1.725008 4.036628
P 0.115888 12.376826 4.021298
P 0.752732 4.437902 0.617424
P 1.149521 9.327234 0.601824
P 4.090695 2.473479 5.624180
P 5.199469 8.578763 2.189359
Fe 2.651872 10.490152 3.121728
Fe 2.588345 3.636397 3.104269
