14

O 1.316379 4.086063 -1.928854
O 3.774672 3.962888 -3.231690
O 3.445669 0.595491 0.652839
O 3.268116 3.161174 -0.895124
O 1.440404 0.671388 4.912488
O 1.769408 4.038785 1.027959
O 1.946960 1.473102 2.575922
O 3.898697 0.548213 3.609651
F 0.790173 1.575427 0.550285
F 4.424904 3.058849 1.130513
P 2.239860 0.350295 3.709579
P 2.975217 4.283982 -2.028781
V 0.000000 0.000000 0.000000
V 2.607538 2.317138 0.840399
