30

O 3.173154 7.512806 6.103619
O 4.034332 7.524025 0.082447
O 4.034332 4.940509 0.082447
O 3.849010 2.077422 0.571359
O 0.734884 0.785664 6.922757
O 0.734884 3.369180 6.922757
O 0.920206 6.232267 6.433845
O 1.166941 4.952467 3.739509
O 1.166941 7.512067 3.739509
O 1.373028 2.077422 3.434546
O 2.553519 2.077422 7.735954
O 2.633222 2.077422 5.362972
O 3.602274 0.797622 3.265694
O 1.596061 3.357962 0.901585
O 3.173154 4.951727 6.103619
O 1.596061 0.796883 0.901585
O 2.135993 6.232267 1.642231
O 2.215696 6.232267 -0.730750
O 3.396182 6.232267 3.570659
O 3.602274 3.357222 3.265694
P 2.436373 6.232267 6.634704
P 1.944562 6.232267 3.226735
P 2.824654 2.077422 3.778469
P 2.332843 2.077422 0.370499
P 1.518284 2.077422 6.736894
P 3.250931 6.232267 0.268309
Cu 4.437326 7.769784 4.248883
Cu 4.437326 4.694750 4.248883
Cu 0.331890 3.614939 2.756321
Cu 0.331890 0.539905 2.756321
