44

Li 1.034493 1.347921 3.886944
Li 7.375412 3.680331 10.614268
Li 5.239433 1.166205 11.137535
Li 3.170455 3.862031 3.363661
O 3.426419 0.798153 2.473277
O 7.631376 1.715963 9.723885
O 6.993998 2.237034 12.398958
O 7.633184 4.817754 12.382683
O 0.776704 0.210482 2.118536
O 1.415890 2.791202 2.102249
O 0.778521 3.312274 4.777325
O 0.791212 4.698801 7.312035
O 0.883796 1.449873 9.150447
O 1.795294 1.982103 7.048535
O 0.529260 1.417637 11.514405
O 5.088744 1.064252 4.431733
O 2.789050 0.277076 5.148365
O 3.428244 2.724608 5.132069
O 3.675688 3.931753 7.705519
O 7.526101 3.578373 5.350763
O 2.409654 4.496223 12.171389
O 3.321152 3.963989 10.069477
O 7.618677 0.329435 7.189173
O 6.000251 0.532013 2.329823
O 3.413737 2.184675 11.907890
O 4.734217 1.096488 6.795694
O 4.981653 2.303638 9.369141
O 5.620847 4.751160 9.352845
O 4.983469 4.230088 12.027930
O 7.880628 3.610614 2.986802
O 6.614594 3.046139 7.452673
O 4.996168 2.843561 2.593311
P 4.883535 1.333987 2.864056
P 3.526354 3.694259 11.637151
P 4.439450 3.726953 9.030267
P 7.731311 3.848103 6.918439
P 0.234502 3.815414 1.779662
P 0.678595 1.180138 7.582773
P 3.970455 1.301289 5.470945
P 8.175395 1.212827 12.721548
Cr 6.410932 3.819100 13.524688
Cr 6.203914 1.304974 8.227115
Cr 2.205992 3.723262 6.274098
Cr 1.998957 1.209151 0.976507
