11

Li 3.930378 4.689110 0.121891
O 0.666057 2.517591 3.561988
O 0.377770 4.256364 1.879287
O 1.820951 4.739402 3.992316
O 2.781213 3.318110 2.284687
O 4.450444 2.742645 0.599044
O 2.430999 1.177344 0.930930
O 4.276195 1.296012 2.661916
P 1.327764 3.709981 2.976307
P 3.505471 2.056282 1.570453
Cr 0.639403 0.762842 4.416699
