32

Li 1.669431 0.834716 0.000000
Li 0.705363 6.067719 1.749477
Li 2.516810 3.123138 2.128479
Li 5.118778 2.559389 0.000000
Li 6.082846 4.540693 5.453440
Li 4.271399 7.485274 5.074437
Li 0.000000 3.607154 3.601458
Li 3.394105 5.304206 3.601458
Fe 3.394105 5.304206 0.046912
Fe 0.000000 3.607154 0.046912
P 0.839172 5.850192 5.091160
P 4.084818 7.788583 1.822323
P 5.949037 4.758220 2.111756
P 2.703391 2.819829 5.380593
O 5.182268 6.004620 6.422365
O 0.079205 2.635072 1.716456
O 6.578257 3.735384 1.362446
O 6.709004 7.973340 5.486461
O 0.862496 5.812285 3.569667
O 3.421448 8.866913 5.508213
O 0.209953 6.873028 5.840470
O 1.605941 4.603792 0.780551
O 2.981130 6.842939 0.990578
O 3.807079 3.765473 6.212338
O 4.431940 7.224316 3.166995
O 2.356269 3.384096 4.035921
O 5.925713 4.796127 3.633249
O 4.266824 4.728882 1.716456
O 2.521378 5.879527 5.486461
O 1.229168 2.476517 6.212338
O 3.366762 1.741499 1.694703
O 5.559041 8.131895 0.990578
