24

Ni 3.473297 1.423779 0.911442
Ni 1.589228 4.832818 3.398893
Ni 6.651753 4.832818 4.063461
Ni 8.535822 1.423779 1.576009
P 9.178226 3.154010 4.070849
P 6.009349 6.563049 1.583397
P 4.115701 3.154010 3.391506
P 0.946824 6.563049 0.904054
O 4.513423 6.769392 1.246024
O 6.196581 6.350591 3.106508
O 1.134056 6.350591 4.355846
O 8.661626 1.878401 3.360288
O 6.784786 1.015273 1.141128
O 1.463424 5.287441 1.614615
O 5.611627 3.360352 3.728879
O 0.549102 3.360352 3.733476
O 8.402789 4.424313 3.628580
O 1.722261 1.015273 1.346323
O 9.575949 6.769392 1.241427
O 6.525949 5.287441 0.872837
O 3.928469 2.941551 1.868394
O 8.990994 2.941551 0.619057
O 3.340264 4.424313 3.833775
O 3.599101 1.878401 4.102066
