28

Mo 5.164192 1.616138 5.727934
Mo 1.290248 1.616138 5.420953
Mo 6.457640 4.848415 2.011638
Mo 2.583696 4.848415 1.704658
P 4.839223 4.848415 6.523006
P 6.782610 1.616138 2.806710
P 2.908666 1.616138 0.909586
P 0.965278 4.848415 4.625882
O 4.772800 4.848415 2.443182
O 3.532007 4.848415 7.352796
O 4.881340 3.617266 5.588811
O 4.215882 1.616138 0.079796
O 2.975088 1.616138 4.989410
O 1.687451 1.616138 7.401739
O 1.007396 6.079563 5.560077
O 0.341938 1.616138 3.636500
O 6.740492 2.847286 1.872515
O 5.561395 1.616138 3.747149
O 6.849033 1.616138 6.159478
O 6.740492 0.384990 1.872515
O 4.881340 6.079563 5.588811
O 6.060437 4.848415 0.030853
O 1.007396 3.617266 5.560077
O 0.898856 4.848415 1.273114
O 2.866548 2.847286 1.843781
O 2.186493 4.848415 3.685443
O 7.405951 4.848415 3.796092
O 2.866548 0.384990 1.843781
