56

Li 1.288668 1.166904 3.370706
Li 7.174213 5.488133 1.010897
Li 5.520109 3.154324 5.392501
Li 2.942772 7.475552 7.752309
O 5.101467 5.423211 0.706525
O 7.592855 3.219246 5.088128
O 7.697135 0.981472 3.227296
O 8.121963 2.371378 7.418063
O 0.340919 6.692606 5.726747
O 0.765747 5.302700 1.154307
O 0.870027 7.540474 8.056682
O 1.002166 3.321279 2.789083
O 1.130082 1.664485 5.464306
O 1.179878 4.014862 6.447845
O 1.346334 7.453453 3.534482
O 1.604655 0.791597 1.365535
O 1.912670 3.143607 0.422833
O 2.318770 5.498849 4.804437
O 2.626785 7.850859 5.747139
O 2.885106 1.189003 7.916085
O 3.051563 4.627595 2.066241
O 3.101358 6.977971 1.082703
O 3.229275 5.321178 7.170687
O 3.361414 1.101982 3.675079
O 3.465694 3.339756 5.535910
O 7.332799 5.985713 7.680504
O 4.572360 6.271079 3.036460
O 4.997188 7.660984 7.608899
O 3.890522 1.949851 1.345143
O 5.233607 0.999949 5.974123
O 5.361523 2.656743 3.298900
O 5.411319 0.306366 2.315362
O 5.577775 5.510231 5.228725
O 5.836096 3.529631 7.397671
O 6.144111 1.177621 8.340373
O 6.550211 7.464835 3.958770
O 6.858226 5.112825 3.016068
O 7.116547 3.132225 0.847122
O 7.283004 8.336090 6.696965
O 7.460716 7.642507 1.592520
P 5.806789 0.181760 7.108047
P 5.942475 5.966916 3.852498
P 6.751848 2.675540 8.234102
P 6.887533 8.460697 2.726444
P 0.251500 2.772189 5.981826
P 1.575348 4.139469 1.655159
P 1.711034 6.996768 4.910708
P 2.520407 1.645688 0.529105
P 8.211382 7.093417 7.162984
P 3.979941 5.870268 1.600223
P 4.482941 1.549039 2.781380
P 2.656092 4.502988 6.036763
Co 7.373870 3.068763 2.982619
Co 5.320453 5.573693 7.364222
Co 3.142429 1.252465 5.780588
Co 1.089012 7.389992 1.398985
