74

Li 2.380903 0.940092 5.544058
Li 10.317721 5.645582 2.481189
Li 8.422514 3.104605 -0.505585
Li 10.317708 4.232922 7.769750
Li 8.422527 0.188232 4.782961
Li 4.276096 6.397449 3.242285
Li 2.380916 2.352745 0.255496
Li 4.276109 3.481069 8.530831
O 3.453340 5.207404 9.286735
O 10.610157 3.844664 5.715089
O 10.430230 3.684843 2.682973
O 9.245284 1.378270 -1.261488
O 10.610157 6.033847 0.426530
O 10.589928 3.615430 -0.334998
O 12.578228 5.294987 6.468669
O 12.516640 4.800647 4.168592
O 12.578228 4.583517 1.180100
O 12.516627 5.077871 -1.119975
O 0.181997 1.507810 9.145222
O 0.120396 2.002157 6.845147
O 0.181997 1.785034 3.856652
O 0.120396 1.290680 1.556577
O 2.108695 2.970238 8.360244
O 2.088466 0.551820 7.598716
O 2.268393 2.900831 5.342274
O 10.589941 6.263075 4.953559
O 2.108683 0.322593 3.071688
O 2.088466 2.741017 2.310157
O 3.216866 4.979020 6.459660
O 2.268393 0.392006 0.053725
O 3.453340 4.671100 3.998165
O 4.945327 1.543721 8.890034
O 3.216866 4.899484 1.171100
O 4.465039 0.779928 5.787090
O 4.853592 3.288286 5.608673
O 5.844770 5.047155 7.931529
O 4.945327 1.749109 3.601465
O 4.465039 2.512909 0.498530
O 4.853592 0.004557 0.320114
O 5.844770 4.831349 2.642959
O 6.853854 1.754325 5.382287
O 7.845032 6.581123 7.705133
O 8.233584 4.072765 7.526716
O 7.753297 4.836565 4.423782
O 6.853854 1.538512 0.093718
O 7.845032 3.297388 2.416574
O 9.481757 1.606654 1.565597
O 9.481757 1.686183 6.854146
O 7.753297 5.041946 -0.864788
O 9.245284 1.914567 4.027081
O 10.430230 6.193662 7.971521
O 8.233584 5.805746 2.238167
P 3.364335 3.985169 5.338202
P 3.364323 5.893348 0.049656
P 5.315085 1.822914 5.065771
P 1.172439 1.529391 2.715195
P 7.383551 5.115758 8.248043
P 5.315085 1.469922 -0.222799
P 7.383539 4.762759 2.959486
P 9.334301 0.692332 7.975591
P 9.334301 2.600505 2.687042
P 11.526185 5.056276 5.310051
P 1.172439 1.763439 8.003754
P 11.526185 4.822228 0.021492
Fe 11.018634 1.594721 0.104428
Fe 11.018634 1.698116 5.392987
Fe 8.346475 0.092496 0.383524
Fe 8.346462 3.200341 5.672097
Fe 4.352161 3.385326 2.353150
Fe 4.352148 6.493185 7.641722
Fe 1.679990 4.887558 2.632259
Fe 0.000000 0.000000 0.000000
Fe 1.679990 4.990953 7.920818
Fe 0.000000 3.292837 5.288559
