76

O 5.659259 7.931463 7.891000
O 5.659259 14.898015 7.891000
O 5.748181 2.470926 3.539520
O 5.285056 14.309197 4.672106
O 5.285056 8.520296 4.672106
O 5.077701 5.523485 7.592410
O 5.077701 2.086340 7.592410
O 4.730065 11.414739 6.271299
O 4.749194 3.804913 1.271977
O 4.401558 13.133296 2.593098
O 4.401558 9.696181 2.593098
O 4.194190 6.699371 9.671428
O 6.075974 13.800997 0.401855
O 6.075974 9.028480 0.401855
O 6.071114 3.804913 5.553127
O 5.748181 5.138885 3.539520
O 0.243522 1.418654 9.596788
O 0.243522 6.191172 9.596788
O 0.248394 11.414739 4.445517
O 0.571327 10.080751 6.459124
O 0.571327 12.748726 6.459124
O 0.660243 0.321637 2.107644
O 0.660243 7.288189 2.107644
O 1.034439 0.910455 5.326538
O 1.034439 6.699371 5.326538
O 1.241807 9.696181 2.406234
O 1.241807 13.133296 2.406234
O 1.589443 3.804913 3.727344
O 1.570314 11.414739 8.726666
O 4.194190 0.910455 9.671428
O 1.917956 5.523485 7.405546
O 2.125305 8.520296 0.327216
O 2.125305 14.309197 0.327216
O 2.499508 7.931463 7.106956
O 2.499508 14.898015 7.106956
O 2.588417 2.470926 1.459802
O 2.588417 5.138885 1.459802
O 2.911357 3.804913 9.444839
O 2.916229 9.028480 4.597476
O 2.916229 13.800997 4.597476
O 3.403273 1.418654 5.401177
O 3.403273 6.191172 5.401177
O 3.408145 11.414739 0.553815
O 3.731078 10.080751 8.538842
O 3.731078 12.748726 8.538842
O 3.819994 0.321637 2.891678
O 3.819994 7.288189 2.891678
O 1.917956 2.086340 7.405546
P 0.078248 3.804913 4.025614
P 0.933795 8.632525 1.349957
P 0.933795 14.196967 1.349957
P 2.225956 1.022684 6.349279
P 2.225956 6.587141 6.349279
P 3.081509 11.414739 9.024926
P 3.237999 3.804913 0.973718
P 4.093539 8.632525 3.649365
P 4.093539 14.196967 3.649365
P 5.385707 1.022684 8.648677
P 5.385707 6.587141 8.648677
P 6.241260 11.414739 5.973030
Mn 5.403730 5.808702 5.660752
Mn 5.403730 1.801124 5.660752
Mn 5.269864 6.042430 1.598963
Mn 5.269864 1.567411 1.598963
Mn 4.209382 13.652240 6.598285
Mn 4.209382 9.177237 6.598285
Mn 4.075516 13.418527 0.661430
Mn 4.075516 9.410950 0.661430
Mn 2.243986 5.808702 9.337224
Mn 2.243986 1.801124 9.337224
Mn 2.110113 6.042430 3.400359
Mn 2.110113 1.567411 3.400359
Mn 1.049631 13.652240 8.399681
Mn 1.049631 9.177237 8.399681
Mn 0.915765 13.418527 4.337892
Mn 0.915765 9.410950 4.337892
