44

Li 0.184757 5.337694 3.322441
Li 2.377035 6.097902 8.678248
Li 3.411557 -0.128343 2.546023
Li 5.876617 4.439543 5.974181
O 2.908912 8.452123 9.107479
O 5.836293 0.600543 -0.148959
O 6.073210 7.155745 3.920601
O 6.274631 2.497216 4.086518
O 0.332752 6.820977 9.271500
O 0.562603 9.515057 8.790579
O 0.233158 3.066950 4.761276
O 0.071806 7.476054 4.620805
O 1.642447 0.237745 6.564218
O 2.250054 4.530595 7.478086
O 1.363140 5.651619 5.696295
O 6.234288 3.253299 -0.781468
O 2.034005 8.177734 5.570389
O 0.798941 1.714096 0.768998
O 2.698103 3.096777 5.567572
O 2.565093 0.135733 4.313071
O 1.865664 1.885274 2.551112
O 2.308841 4.766215 3.147847
O 4.802808 9.727049 2.126097
O 4.542054 8.171058 6.180501
O 3.564411 6.991959 3.266769
O 3.870558 9.977317 4.381770
O 5.732190 8.170728 7.888843
O 4.312947 1.888920 3.134980
O 3.516843 1.553076 -0.541764
O 4.030097 5.672802 1.334387
O 4.937593 4.435799 3.077002
O 3.999378 5.303060 5.632352
P 5.573529 2.687235 3.019561
P 4.423640 0.064278 -0.336099
P 5.957474 7.740611 6.584331
P 3.617703 5.449020 2.696593
P 0.761301 7.400390 5.706808
P 1.995335 9.990433 8.991525
P 2.669311 4.665919 6.124019
P 0.513591 2.297665 2.047698
Mn 1.718228 2.131425 7.325074
Mn 2.275762 2.503144 4.029714
Mn 4.058101 7.599191 4.726532
Mn 4.683148 7.899831 1.358510
