20

O 2.828287 3.570899 4.127185
O 4.749203 0.500164 2.065107
O 0.243037 6.322959 8.762170
O 0.436961 4.330659 3.741691
O 0.872674 1.941559 4.612916
O 1.421891 2.297199 2.399327
O 1.528895 0.962578 7.900268
O 2.163959 3.252224 6.700093
O 4.119566 4.881563 6.214354
O 2.791135 0.471329 5.679916
O 4.555289 2.492464 7.085579
O 3.463345 5.860544 2.927010
O 3.570364 4.525918 8.427948
O 2.201121 6.351794 5.147362
P 1.379632 3.074876 3.817636
P 3.612619 3.748246 7.009642
P 1.217349 0.735102 1.619492
P 3.774891 6.088020 9.207785
Mn 3.789958 5.365553 4.556416
Mn 1.202282 1.457576 6.270864
