72

Cr 1.350951 4.585921 0.539676
Cr 1.409442 20.490268 1.786452
Cr 1.699137 9.540646 2.277622
Cr 1.757628 15.535543 3.524398
Cr 4.459531 6.363701 4.603750
Cr 4.518022 12.358597 5.850526
Cr 4.807717 1.408975 6.341697
Cr 4.866208 17.313323 7.588472
O 0.081190 6.801358 3.882141
O 0.083254 12.408769 5.440471
O 0.791581 2.690738 1.355411
O 0.697634 20.278437 3.804814
O 0.512909 1.282880 5.523318
O 1.424221 13.454479 0.389764
O 1.169883 5.203786 2.320633
O 1.310894 18.584596 1.857454
O 1.402286 0.444445 2.304444
O 0.600149 17.244735 6.742649
O 1.257644 9.700774 3.757416
O 1.706293 11.394067 1.759630
O 1.797685 7.634974 2.206621
O 1.938697 16.153408 1.743441
O 1.488046 16.971126 4.129659
O 1.684359 2.504857 3.674310
O 1.490160 14.549157 5.134489
O 1.618420 3.599535 5.841630
O 2.316998 13.640360 2.708664
O 1.620534 6.021504 6.846461
O 1.850935 20.650396 7.218703
O 2.508431 6.295113 4.233470
O 3.189769 4.148264 1.034169
O 2.595670 12.232502 5.452802
O 3.191833 20.440097 2.592500
O 2.410946 9.328815 7.171306
O 3.806213 12.570429 0.956843
O 3.025325 1.459125 5.535649
O 3.621489 9.666742 2.675346
O 3.027390 17.750980 7.093979
O 3.708728 15.604131 3.894678
O 4.366224 1.248848 0.909445
O 4.596625 15.877740 1.281688
O 3.900161 8.258884 5.419485
O 4.598739 18.299709 2.286518
O 4.726999 7.350087 2.993659
O 4.532800 19.394386 4.453838
O 4.729113 4.928118 3.998490
O 4.278462 5.745836 6.384708
O 4.419474 14.264270 5.921528
O 4.510866 10.505177 6.368518
O 4.959515 12.198470 4.370732
O 5.617010 4.654509 1.385499
O 4.814872 21.454799 5.823705
O 4.906265 3.314648 6.270695
O 5.047276 16.695458 5.807515
O 4.792938 8.444765 7.738385
O 5.704249 20.616364 2.604831
O 5.519525 1.620807 4.323335
O 5.425578 19.208506 6.772738
O 6.133905 9.490475 2.687677
O 6.135969 15.097886 4.246008
P 0.719232 1.800797 2.554938
P 1.702096 17.432499 0.912277
P 1.406483 6.482877 3.151797
P 1.395603 13.156299 5.752614
P 1.712976 2.206677 5.223506
P 2.389347 12.750419 1.509136
P 3.827811 9.148825 6.619012
P 4.504182 19.692567 2.904642
P 4.821556 8.742923 2.375535
P 4.810676 15.416367 4.976352
P 4.515062 4.466745 7.215871
P 5.497927 20.098447 5.573211
