44

Li 2.627495 3.666761 4.404752
Li 0.903534 7.819857 6.488067
Li 4.434562 4.639432 0.608041
Li 6.158523 0.486336 -1.475274
Ni 0.872213 4.785464 7.006550
Ni 4.403242 7.673826 1.126524
Ni 6.189843 3.520729 -1.993757
Ni 2.658815 0.632367 3.886269
P 4.850997 6.380768 3.935394
P 1.319969 6.078522 1.428998
P 6.621392 2.229872 0.763128
P 0.440665 6.076321 4.249665
P 5.742088 2.227671 3.583795
P 2.211059 1.925425 1.077399
P 3.090363 1.923224 6.643154
P 3.971694 6.382969 -1.630361
O 6.535347 0.923416 3.715730
O 1.133171 7.428087 4.479253
O 2.944256 6.171219 1.100514
O 2.558647 0.801465 5.845839
O 2.397858 3.274991 6.413566
O 6.372327 3.371691 4.324291
O 4.664199 5.031202 -1.400773
O 1.028313 5.557591 2.854299
O 4.503410 7.504729 -0.833046
O 0.586772 2.018131 1.405883
O 1.192647 2.149219 4.011048
O 3.004319 3.229680 1.209333
O 4.057738 5.076513 3.803460
O 2.502715 1.404494 -0.347903
O 4.723676 2.003877 -1.868978
O 0.972382 4.954561 5.046980
O 2.338381 6.302316 6.881771
O 4.117801 2.134966 3.912279
O 4.559342 6.901699 5.360696
O 5.869410 6.156974 1.001745
O 0.526709 7.382777 1.297063
O 2.841299 0.781405 1.817895
O 5.928886 0.878106 0.533540
O 6.033744 2.748602 2.158494
O 4.220758 7.524788 3.194899
O 6.475285 6.288071 3.606910
O 0.689730 4.934502 0.688502
O 6.089675 3.351632 -0.034187
