46

Li 2.178717 4.642102 6.934945
Li 2.178717 7.373548 2.286322
Li 5.309152 0.636886 3.626710
Li 5.309152 3.368339 -1.021923
O 2.368355 1.039498 6.438548
O 7.232270 7.329042 -2.259737
O 6.317192 5.004735 -1.696330
O 7.402605 1.634569 2.648501
O 7.232278 4.686616 2.388893
O 5.119514 6.970944 -0.525516
O 0.085279 5.639778 7.913157
O 0.255606 0.681400 8.172774
O 1.170685 3.005699 7.609359
O 0.085272 6.375873 3.264528
O 0.255606 3.323817 3.524132
O 7.402605 2.370648 -2.000132
O 2.830634 6.634353 7.018758
O 1.170685 0.999510 2.960726
O 2.090203 7.136295 4.868478
O 2.970830 3.968921 5.207974
O 2.368355 2.965719 1.789906
O 2.830634 5.381297 2.370125
O 2.090203 4.879355 0.219836
O 4.657242 1.376088 -1.105730
O 2.970830 0.036303 0.559332
O 5.397673 3.131070 5.693183
O 4.657242 2.629136 3.542903
O 5.119514 5.044707 4.123126
O 4.517054 4.041520 0.705060
O 5.397673 0.874147 1.044559
O 6.317199 7.010916 2.952299
O 4.517054 7.974130 5.353684
P 6.618309 6.372364 -1.179087
P 6.618309 5.643286 3.469556
P 4.502453 0.407154 0.019199
P 2.985424 4.412379 1.245196
P 4.502453 3.598054 4.667842
P 2.985424 7.603271 5.893820
P 0.869560 1.638070 7.092109
P 0.869567 2.367139 2.443482
Mn 0.000000 0.000000 4.648642
Mn 1.485295 4.991445 4.170403
Mn 0.000000 4.005217 0.000000
Mn 1.485295 7.024205 -0.478221
Mn 6.002589 0.986229 6.391255
Mn 6.002581 3.018996 1.742616
