40

Fe 5.051028 6.030629 2.371618
Fe 5.051028 6.345443 -2.146144
Fe 1.933586 1.905272 8.127972
Fe 1.933586 2.220086 3.610210
P 3.741232 0.687375 5.540542
P 3.243382 7.563339 0.441286
P 0.476421 3.854371 6.158192
P 6.508193 4.396344 -0.176364
P 0.476421 0.270986 1.640430
P 3.741232 3.437982 1.022780
P 3.243382 4.812733 4.959048
P 6.508193 7.979728 4.341398
O 3.665232 7.551747 6.164855
O 3.319382 3.426390 4.334734
O 6.231142 7.433630 3.050192
O 1.642634 4.992829 5.669806
O 6.424343 6.849685 5.335037
O 3.536149 6.442141 -0.559373
O 2.777222 0.760155 4.511131
O 1.642634 7.383243 1.152044
O 0.560271 2.724328 5.164553
O 0.931601 0.463896 7.252386
O 3.319382 0.698968 -0.183028
O 6.053013 4.589254 3.247204
O 3.448464 2.316784 2.023439
O 6.231142 4.942442 -1.467570
O 3.665232 4.824325 1.647093
O 6.053013 7.786818 -1.270558
O 5.341979 3.257885 0.312022
O 0.931601 3.661461 2.734624
O 4.207392 4.885512 5.988459
O 0.560271 1.401029 0.646791
O 3.448464 1.808573 6.541201
O 0.753472 3.308281 7.449398
O 3.536149 5.933930 3.958389
O 6.424343 5.526386 0.817275
O 4.207392 7.490560 1.470697
O 5.341979 0.867472 4.829784
O 2.777222 3.365202 -0.006631
O 0.753472 0.817077 2.931636
