55

Li 0.265746 0.929871 2.727121
Li 2.490141 5.513132 -2.185296
Li 3.347804 1.449193 1.180283
Li 5.975634 3.619984 2.954702
Li 6.833297 -0.443938 6.320284
Li 9.057693 4.139314 1.407870
O 3.068092 6.693181 4.672675
O 9.052742 -0.583125 -2.574260
O 8.961736 1.021486 3.195343
O 6.255347 -1.623996 -0.537675
O 6.633095 -1.743165 2.389587
O 8.210696 2.895210 0.316960
O 6.912099 0.788593 0.946513
O 6.107654 -1.077650 4.648498
O 7.773846 4.707180 -2.916351
O 1.094152 7.557178 -0.033884
O 0.270687 5.652305 6.709265
O 0.361703 4.047699 0.939640
O 8.229277 -2.487981 4.168866
O 2.690334 6.812354 1.745406
O 1.112743 2.173967 3.818034
O 2.411340 4.280592 3.188469
O 3.215775 6.146830 -0.513502
O 1.549584 0.362008 7.051335
O 1.075226 1.693036 1.075532
O 2.727637 3.026418 5.375839
O 2.473313 3.355827 -0.510405
O 8.248223 3.376154 3.059455
O 4.065057 2.393788 3.408579
O 5.476877 5.023088 1.587423
O 4.252383 0.503279 6.134141
O 5.071056 4.565907 -1.999150
O 3.846562 0.046106 2.547566
O 5.258392 2.675402 0.726417
O 3.704109 0.236660 -0.072637
O 6.850117 1.713354 4.645410
O 6.595792 2.042762 -1.240844
O 5.619330 4.832525 4.207628
P 6.631771 -2.126545 3.819179
P 8.402339 2.111874 3.940589
P 6.697296 2.120208 0.214459
P 6.175762 5.219296 -3.115345
P 3.147686 -0.150106 7.250332
P 2.626142 2.948977 3.920524
P 0.921090 2.957307 0.194398
P 2.691658 7.195725 0.315808
Mn 9.323439 0.915078 1.161448
Mn 0.432878 2.352465 5.954076
Mn 3.985882 5.851424 3.097562
Mn 0.000000 0.000000 0.000000
Mn 4.347855 4.451133 0.019884
Mn 4.661719 2.534593 -2.218231
Mn 4.975574 0.618064 4.115107
Mn 5.337557 -0.782230 1.037427
Mn 8.890552 2.716724 -1.819091
