34

Li 7.206980 1.116113 2.202203
Li 3.532175 5.751411 0.706414
Mn 6.422681 2.430594 -0.761361
Mn 0.879302 2.252428 7.990095
Mn 4.658622 4.655728 3.635814
Mn 2.657582 0.009355 3.599570
P 4.930541 1.588014 4.783785
P 4.025406 0.997978 0.896372
P 2.366989 3.089860 2.446278
P 3.283925 3.665010 6.338814
P 7.044344 4.504750 1.287080
P 0.272342 0.174159 5.944221
O 6.400943 -1.903905 2.404246
O 4.396451 3.742194 7.262748
O 4.443349 0.253666 4.397896
O 2.929763 0.907699 -0.036191
O 2.874808 4.435043 2.795019
O 5.375727 2.506963 3.704310
O 6.111966 1.353869 5.702742
O 0.090937 6.055361 8.890356
O 5.507398 4.935092 1.965982
O 6.994302 3.059552 0.766641
O 1.187216 3.324957 1.528185
O 1.913548 2.189524 3.533520
O 0.914216 6.591933 4.826405
O 3.746088 2.395566 1.616417
O 3.424084 4.744288 5.287894
O 1.720590 3.688078 6.929452
O 3.547405 2.268511 5.617199
O 1.808507 -0.259506 5.269878
O 5.606889 0.988871 0.339010
O 0.318633 1.619779 6.460553
O 7.234846 -1.380734 -1.659162
O 3.886789 -0.080209 1.946109
