22

Li 1.415250 5.676125 2.589088
Li 4.022017 1.480994 4.195107
O 2.240479 6.722357 5.355108
O 0.593062 4.519717 3.768024
O 0.774204 2.065500 4.593433
O 1.455246 2.479538 2.402632
O 1.377770 0.880124 8.132065
O 0.288976 6.367958 8.965944
O 2.238900 3.402086 6.879323
O 2.902157 3.540377 4.239348
O 2.993240 0.535891 5.777955
O 4.850482 0.726866 2.455214
O 3.603261 4.710291 8.647416
O 4.209074 5.045493 6.443497
O 4.621279 2.690310 7.334636
O 3.459583 6.003917 2.955815
P 1.199669 0.842414 1.774984
P 1.434527 3.182767 3.856412
P 3.670946 3.917089 7.232591
P 3.886995 6.275376 9.393790
V 1.230062 1.580489 6.405041
V 3.860789 5.616160 4.773963
