42

Li 1.557535 5.376891 2.398307
Li 7.107988 -2.205143 7.155896
Li 5.908989 1.852281 7.155897
Li 5.550445 2.342087 2.398306
Li 1.916093 -0.647544 7.155905
Li 0.358543 1.480118 2.398300
O 0.854978 2.823712 7.814594
O 4.977695 -0.333480 8.016401
O 6.701248 1.660178 8.961510
O 6.218297 0.447747 5.940421
O 5.355434 -1.596763 5.940389
O 6.611538 -0.795017 3.056969
O 0.765275 5.290941 4.203922
O 1.248233 4.013826 1.182804
O 2.111119 1.853692 1.182798
O 2.899190 4.276167 7.814595
O 2.488821 3.066403 5.743228
O 4.977702 -0.333425 0.985616
O 2.488859 3.066365 3.258818
O 0.000015 6.466195 1.542913
O 0.915226 0.997786 4.203932
O 6.551305 -2.612884 8.961520
O 4.107246 3.331599 1.182809
O 1.680568 -0.047648 8.961512
O 3.712378 2.099239 7.814561
O 3.359278 0.148595 5.940376
O 5.785962 2.910438 4.203912
O 4.567341 0.931316 3.056984
O 3.754138 -1.136666 3.056952
O 7.466523 2.732913 6.300508
P 2.488836 3.066396 7.347825
P 2.488881 3.066367 1.679228
P 0.000007 -0.000004 0.001656
P 7.466516 2.732917 4.759245
P 4.977725 -0.333430 2.590213
P 4.977747 -0.333467 6.436829
Co 7.094025 -0.044882 9.307393
Co 4.416472 -1.885611 9.307392
Co 3.422624 0.930138 9.307390
Co 3.050066 1.439023 4.549799
Co 4.043915 4.121622 4.549794
Co 0.372521 3.638501 4.549807
