44

O 2.851988 0.839056 12.247660
O 5.437802 3.983254 12.640470
O 5.710786 1.170542 12.861192
O 5.800609 2.902757 9.268945
O 4.293124 6.770110 13.598050
O 5.224790 5.607892 10.845481
O 0.428186 2.370319 0.982027
O 1.109981 5.021398 4.304506
O 0.837004 7.834110 4.083799
O 0.747208 6.101885 7.676053
O 2.254660 2.234549 3.346928
O 1.323001 3.396753 6.099495
O 0.936655 3.335640 8.878859
O 0.208311 5.065112 10.412892
O 1.101306 0.539191 8.373768
O 1.794370 0.675236 5.943191
O 2.430461 6.413769 2.600000
O 2.474305 6.772086 6.340612
O 5.611135 5.668997 8.066140
O 3.952528 5.409598 4.798516
O 3.355075 2.402244 8.154303
O 3.695795 8.165596 4.697340
O 6.119591 6.634324 15.962969
O 3.192729 6.602388 8.790688
O 2.595249 3.595045 12.146455
O 4.765658 2.257279 4.441946
O 4.073492 2.232552 10.604390
O 4.117329 2.590876 14.344989
O 4.753447 8.329405 11.001807
O 5.446491 8.465447 8.571234
O 6.339479 3.939525 6.532107
O 1.782125 6.747372 12.503042
P 0.318897 3.905079 4.955267
P 6.228906 5.099553 11.989735
P 3.677331 1.847261 3.159301
P 2.028676 7.026126 7.717206
P 4.519134 1.978506 9.227787
P 2.870453 7.157391 13.785687
Mo 6.310197 7.399475 14.590668
Mo 5.235436 7.114789 9.459154
Mo 3.951860 2.616051 12.401684
Mo 2.595924 6.388593 4.543303
Mo 1.312380 1.889860 7.485846
Mo 0.237580 1.605191 2.354296
