28

Li 2.257175 3.702294 -1.187446
Li 3.580770 1.525754 -0.041337
Li 5.739920 4.692357 3.069718
Li 7.063524 2.515806 4.215828
O 1.077454 5.438720 2.592373
O 8.243236 0.779385 0.436008
O 8.340470 1.370250 3.354199
O 7.899060 4.399784 3.436524
O 0.529639 2.257723 3.345163
O 8.791051 3.960388 -0.316783
O 0.980230 4.847867 -0.325809
O 1.421630 1.818327 -0.408138
O 3.882342 1.043193 4.133575
O 3.166614 1.363604 1.854488
O 5.438349 5.174918 -1.105189
O 3.788454 3.882058 0.297554
O 5.532245 2.336054 2.730831
O 5.935151 2.712504 -0.216998
O 6.154094 4.854508 1.173901
O 3.385548 3.505608 3.245383
P 8.810447 5.032701 -1.433288
P 5.329464 4.142830 0.029156
P 3.991235 2.075287 2.999227
P 0.510262 1.185417 4.461676
Mn 0.826606 1.542500 1.474073
Mn 2.828217 4.956826 1.686425
Mn 6.492492 1.261287 1.341958
Mn 8.494093 4.675611 1.554311
