12

O 4.171079 2.389142 3.830217
O 4.161471 -0.325921 3.434562
O 1.080979 2.343312 2.404359
O 0.966576 5.426565 5.567140
O 3.484050 4.432129 7.250167
O 1.506192 1.895950 4.783903
O 4.894708 2.535275 6.315033
O 1.345647 0.075058 1.646336
P 0.619409 1.364612 1.261645
P 4.686046 3.353701 7.421300
Mn 2.471911 0.879732 3.643824
Mn 1.116548 4.287995 2.831115
