16

Li 4.753698 2.544813 -2.533100
Li 0.531924 2.327193 4.138543
O 3.693217 4.120431 -3.481243
O 3.407143 3.331029 -1.219796
O 1.878478 1.540976 2.825239
O 3.288761 0.389202 0.767307
O 1.592404 0.751574 5.086686
O 1.996860 4.482803 0.838136
O 1.233051 4.095738 -2.053863
O 4.052571 0.776267 3.659306
F 0.593544 1.866309 0.500756
F 4.692078 3.005696 1.104687
P 2.378419 0.434748 3.853503
P 2.907203 4.437257 -2.248060
W 0.000000 0.000000 0.000000
W 2.642811 2.436003 0.802722
