48

Li 8.898112 2.480215 3.659087
Li 18.278982 4.262016 3.664174
O 6.751731 2.019390 1.126464
O 17.222415 2.576581 0.258019
O 10.835224 2.460494 4.659346
O 18.523842 5.219884 1.799954
O 0.172120 1.550314 3.325984
O 1.272309 0.383511 0.263735
O 1.454335 4.281737 4.654274
O 2.054373 6.576021 2.922780
O 2.207919 3.846358 2.259525
O 2.556362 2.046710 3.966627
O 3.660866 5.831039 0.772310
O 3.972348 3.978364 4.087922
O 5.410492 4.060167 1.107168
O 5.718560 5.773245 4.265355
O 17.454648 6.238553 4.726905
O 7.298336 6.496375 2.039984
O 7.315465 3.784579 2.758983
O 7.841545 4.165636 0.252948
O 8.073777 0.503678 4.721833
O 16.679206 0.245848 2.045055
O 9.553009 5.191910 3.331056
O 10.653179 6.358720 0.268812
O 16.696354 2.957645 2.764060
O 11.435262 0.166196 2.927851
O 11.588789 2.895873 2.264596
O 11.937233 4.695514 3.971704
O 13.041736 0.911178 0.777396
O 13.353219 2.763860 4.092994
O 14.791362 2.682057 1.112239
O 15.099449 0.968972 4.270426
O 16.132602 4.722833 1.131541
O 9.142990 1.522333 1.794877
P 10.815280 5.884080 3.861251
P 11.838677 3.142652 3.729492
P 14.068547 1.710853 0.039396
P 16.302939 3.156143 1.310805
P 1.434410 0.858144 3.856164
P 2.457807 3.599565 3.724420
P 4.687677 5.031378 0.034324
P 6.922069 3.586081 1.305733
P 7.898730 0.845967 1.180083
P 17.279601 5.896250 1.185159
Cr 17.030370 1.223316 3.756789
Cr 11.117870 1.216257 1.278403
Cr 7.649481 5.518908 3.751718
Cr 1.736981 5.525960 1.273327
