58

O 0.372365 1.578774 8.950969
O 0.572472 1.270815 5.596665
O 0.734004 2.519119 2.439915
O 0.162766 5.501059 9.897289
O 0.573810 5.502637 7.367700
O 0.489130 5.540925 3.450085
O 2.287223 2.379846 10.999888
O 1.877268 3.951854 8.788075
O 2.626552 2.002627 7.075875
O 2.509744 2.658718 4.651728
O 3.011341 2.484854 0.727715
O 1.777489 6.474172 1.442023
O 2.749379 4.557646 2.602809
O 2.465912 6.278964 8.877660
O 3.134777 4.481895 11.944825
O 2.346738 7.187539 11.254297
O 2.766930 6.656209 3.818659
O 4.449922 2.691477 9.147190
O 4.860966 2.693047 11.676780
O 4.776277 2.731340 2.898075
O 2.921113 8.588702 9.246234
O 2.860647 8.882060 2.799031
O 2.987770 8.527811 5.328620
O 4.659529 6.951453 10.093511
O 4.859637 6.643494 0.751495
O 6.064653 3.664584 4.906137
O 5.021159 7.891788 3.908245
O 6.753067 3.469390 10.166819
O 6.633885 4.377963 7.790182
O 7.421932 9.854580 7.099655
O 6.574379 7.752532 8.044591
O 7.208278 5.779115 9.798245
O 7.147812 6.072481 3.549129
O 6.164415 9.324520 10.256404
O 7.274917 5.718227 1.019540
O 6.913707 7.375304 11.968605
O 6.796899 8.031395 1.696431
O 7.298505 7.857526 5.620445
O 7.036534 9.930331 3.745351
O 7.054094 3.846630 2.529500
P 2.131471 1.645422 5.694071
P 1.227481 5.253201 8.817391
P 1.897589 5.754040 2.779288
P 3.230578 3.022826 12.042231
P 3.138987 7.309763 9.917032
P 3.453913 8.043380 3.878929
P 5.514628 2.443616 10.227089
P 6.184745 2.944467 3.568872
P 6.418626 7.018090 0.654089
P 7.517733 8.395503 7.002249
P 7.741077 5.233792 2.469231
P 7.426134 4.500179 9.127448
V 2.396383 2.165848 9.040795
V 2.768199 2.631809 2.692635
V 3.086641 6.159433 0.000000
V 7.373796 3.349851 6.348160
V 6.683538 7.538524 10.003684
V 7.055355 8.004494 3.655524
