34

O 6.584314 5.287834 7.358412
O 6.047044 3.080159 6.194573
O 5.404058 0.198729 7.582739
O 6.035396 7.817241 6.327576
O 6.040234 1.172141 2.993518
O 5.059463 0.618112 5.286049
O 4.263851 4.985286 6.291282
O 5.015050 5.546424 3.198914
O 5.010428 8.223775 3.285340
O 4.597356 3.098072 3.967910
O 3.517170 8.359340 6.664215
O 4.873948 3.563288 8.229025
O 2.097150 5.604243 0.865237
O 3.453928 0.808191 2.430033
O 2.373743 6.069459 5.126338
O 1.960670 0.943756 5.808921
O 1.956041 3.621117 5.895339
O 0.386784 3.879697 1.735843
O 1.911636 8.549419 3.808199
O 0.930858 7.995391 6.100735
O 0.935703 1.350290 2.766685
O 1.567033 8.968812 1.511508
O 0.924047 6.087372 2.899680
O 2.707240 4.182245 2.802970
P 5.514592 4.228040 6.999386
P 5.047961 8.985068 6.558109
P 5.028323 0.099345 2.462265
P 4.408530 4.223518 2.983620
P 2.562562 4.944014 6.110626
P 1.456506 4.939491 2.094868
P 1.923145 0.182463 2.536148
P 1.942768 9.068187 6.631988
V 6.197969 2.096568 4.590408
V 0.773130 7.070963 4.503854
