34

O 5.908357 7.361372 7.248105
O 7.561144 9.899417 6.126791
O 1.034372 1.361515 1.963544
O 0.913933 3.169848 6.679852
O 0.059828 5.870503 5.016072
O 1.359335 5.513089 7.118594
O 3.056255 1.999804 4.886285
O 0.807003 7.066934 2.578940
O 1.283192 7.689854 6.358259
O 3.186030 4.317159 5.726657
O 3.094606 3.680605 3.320458
O 2.939774 3.912605 0.630942
O 5.389747 3.337094 4.607648
O 2.267718 8.758729 1.407071
O 3.197776 7.918018 3.486149
O 8.543647 5.392131 3.075097
O 5.256693 7.025874 2.108949
O 7.713833 8.092547 1.432719
O 7.300217 3.582269 1.721090
O 5.592283 7.382437 4.548355
O 7.771330 4.198540 5.500085
O 5.551144 9.235956 3.225010
O 7.239159 5.756367 0.975890
O 6.329278 2.495429 6.683694
P 4.935758 7.934697 3.374151
P 6.577660 7.105967 1.035385
P 0.420225 6.493184 6.306268
P 2.067092 4.182093 6.941231
P 3.650922 3.277389 4.598771
P 1.743446 8.224136 2.641122
P 6.842795 3.036763 5.452571
P 8.171454 4.774845 1.787774
Ni 7.513044 9.830493 2.378994
Ni 1.088977 1.426943 5.720461
