64

Li 5.369349 2.818077 5.983198
Li 11.933778 0.450403 5.983198
Li 3.519072 5.007873 2.892856
Li 3.045357 1.739393 8.296063
Li 10.083502 4.797566 2.892856
Li 7.759510 3.718883 0.579991
Li 1.195081 6.086556 0.579991
Li 9.609786 1.529086 8.296063
Mo 3.564656 5.051808 8.088115
Mo 2.999773 1.783328 2.684908
Mo 1.736790 0.151442 5.547862
Mo 9.564203 1.485158 2.684908
Mo 4.827639 3.419921 0.144655
Mo 10.129085 4.753631 8.088115
Mo 11.392068 6.385518 0.144655
Mo 8.301220 3.117038 5.547862
P 6.322451 2.230188 2.946682
P 2.485674 3.451005 5.472087
P 4.078756 0.182525 0.068880
P 6.806394 4.306771 8.349889
P 0.241965 5.498668 8.349889
P 12.886894 1.038291 2.946682
P 9.050103 6.354434 5.472087
P 10.643185 3.085955 0.068880
O 10.333186 6.390930 9.299244
O 2.795672 0.146029 3.896037
O 10.220304 6.206575 6.521812
O 5.024900 1.374579 0.043701
O 3.410786 3.347793 1.509959
O 5.602596 5.248989 8.085727
O 9.910542 3.198835 9.507224
O 12.167025 4.556450 8.085727
O 3.655875 3.598864 6.521812
O 8.103959 5.162381 5.446908
O 5.024834 1.399145 2.930397
O 4.887953 5.472952 0.426302
O 7.526263 1.287971 2.682519
O 9.975215 6.457646 1.509959
O 3.218316 3.338124 4.104017
O 1.539529 4.643058 5.446908
O 6.484304 2.883355 4.361523
O 0.961833 1.980509 2.682519
O 1.676476 2.204472 5.829509
O 6.280229 3.330705 1.831136
O 3.153644 0.079313 6.913166
O 6.848630 3.206254 7.234343
O 1.539595 4.667624 8.333604
O 11.452382 4.332487 0.426302
O 0.080125 6.151834 9.764730
O 8.104024 5.137815 8.333604
O 9.472983 2.938095 1.118604
O 8.240906 1.064008 5.829509
O 6.644555 3.653605 9.764730
O 12.844658 6.474734 1.831136
O 11.589264 1.869335 2.930397
O 9.360102 3.122451 3.896037
O 2.908554 0.330384 1.118604
O 9.718073 3.189167 6.913166
O 3.768757 3.414509 9.299244
O 13.048733 0.385125 4.361523
O 3.346113 0.069645 9.507224
O 9.782746 6.467315 4.104017
O 11.589329 1.893901 0.043701
O 0.284200 0.062225 7.234343
