20

Fe 4.291693 0.988650 0.985151
Fe 2.297060 5.913325 2.399037
P 2.548428 2.362589 3.135209
P 4.040904 4.539668 0.249370
P 0.937127 1.477831 0.952095
P 5.651988 5.424637 2.432381
O 4.074178 2.914928 0.084782
O 5.912990 4.155812 3.406165
O 0.674860 2.745948 -0.022061
O 0.318932 5.792112 2.340453
O 1.293964 2.056831 2.244138
O 2.286715 1.505462 4.358733
O 2.179941 0.600375 0.555287
O 2.514778 3.987482 3.299971
O 5.295170 4.845824 1.140185
O 3.813249 1.858170 2.502045
O 6.270243 1.110742 1.043375
O 4.409286 6.302210 2.829227
O 4.302532 5.396922 -0.973989
O 2.775470 5.043948 0.882364
