60

Li 1.619250 6.883326 8.300246
Li 0.075439 5.392396 3.215198
Li 2.490536 8.655319 3.131658
Li 8.471944 6.155565 8.502657
Li 6.056846 2.892642 8.586197
Li 2.782703 6.046718 0.959273
Li 3.178840 6.581919 5.534459
Li 6.928132 4.664635 3.417610
Li 2.954514 1.810093 6.184345
Li 8.059396 8.707055 10.752473
Li 5.592869 9.737868 5.533511
Li 0.487987 2.840906 0.965383
Li 4.020296 8.431713 10.646126
Li 1.135195 4.533791 6.037285
Li 4.527087 3.116249 1.071729
Li 7.412188 7.014171 5.680571
Li 5.368543 4.966042 6.183396
Li 5.764680 5.501244 10.758582
F 0.636207 0.825295 8.606982
F 3.530992 2.448782 4.467989
F 7.641386 8.002139 2.251139
F 0.597479 0.841480 3.493034
F 7.911176 10.722666 3.110874
F 7.949904 10.706481 8.224821
F 3.680674 7.411449 9.070621
F 2.109554 5.288784 7.640246
F 4.866709 4.136512 2.647235
F 6.437829 6.259177 4.077609
F 4.836212 9.035685 2.183901
F 0.882740 3.694337 4.299338
F 3.711171 2.512277 9.533954
F 7.664643 7.853625 7.418517
F 3.745121 7.493856 3.991581
F 2.050380 5.204173 2.494969
F 4.802262 4.054105 7.726274
F 6.497002 6.343788 9.222887
F 1.941324 2.943898 7.091595
F 6.243060 8.755768 9.722831
F 6.606059 8.604063 4.626260
F 2.304323 2.792194 1.995025
F 0.719143 6.080511 5.002056
F 2.052107 7.881416 1.353680
F 7.828240 5.467450 6.715799
F 6.495276 3.666546 10.364175
F 2.088425 7.790100 6.552107
F 0.841541 6.105495 10.035038
F 6.458958 3.757861 5.165748
F 7.705842 5.442466 1.682817
F 4.836836 6.739620 1.514387
F 3.478999 4.905111 5.081181
F 3.710547 4.808342 10.203469
F 5.068384 6.642851 6.636675
F 5.016391 9.099179 7.249866
F 0.905997 3.545822 9.466717
V 2.873382 3.908210 8.619763
V 5.644469 7.652093 8.209087
V 5.674001 7.639752 3.098092
V 2.902913 3.895868 3.508768
V 0.000000 0.000000 5.112272
V 0.000000 0.000000 0.000000
