68

Mo 2.185801 0.249652 4.980451
Mo 6.741555 4.819184 4.980451
Mo 6.741555 8.889413 7.518704
Mo 2.185801 4.319881 7.518704
Mo 6.741555 4.819184 1.269127
Mo 2.185801 4.319881 11.230028
Mo 6.741555 8.889413 11.230028
Mo 2.185801 0.249652 1.269127
P 5.362680 8.018515 1.661938
P 0.317519 6.854299 6.249578
P 3.564675 3.448983 4.587640
P 0.317519 6.854299 0.000000
P 5.362680 8.018515 4.587640
P 8.609836 2.284766 6.249578
P 5.362680 5.690082 10.837217
P 3.564675 3.448983 1.661938
P 5.362680 5.690082 7.911515
P 3.564675 1.120550 7.911515
P 3.564675 1.120550 10.837217
P 8.609836 2.284766 0.000000
O 7.748105 3.060454 1.000270
O 3.043541 3.897784 3.124789
O 8.367334 7.838878 7.063322
O 2.734029 4.322961 0.710039
O 3.865224 8.289159 4.643999
O 3.865224 5.419438 7.855156
O 3.043541 0.671749 9.374366
O 3.865224 5.419438 10.893576
O 5.883815 5.241281 9.374366
O 3.319834 2.605712 7.741339
O 5.607522 6.533353 4.757816
O 0.560022 3.269345 7.063322
O 1.818975 4.310833 9.374366
O 3.865224 8.289159 1.605579
O 3.319834 1.963821 1.491762
O 7.748105 3.060454 5.249308
O 5.607522 7.175244 7.741339
O 2.734029 0.246572 11.789116
O 5.062132 3.719627 1.605579
O 7.748105 1.509079 7.249847
O 0.560022 1.300187 0.813745
O 5.883815 8.467316 3.124789
O 8.367334 5.869720 5.435833
O 7.108380 4.828232 3.124789
O 6.193326 4.816104 11.789116
O 8.367334 7.838878 11.685410
O 6.193326 4.816104 6.959617
O 5.062132 3.719627 4.643999
O 0.560022 1.300187 5.435833
O 8.367334 5.869720 0.813745
O 2.734029 0.246572 6.959617
O 5.607522 7.175244 11.007393
O 7.748105 1.509079 11.498885
O 1.818975 0.258700 3.124789
O 1.179250 7.629986 5.249308
O 1.179250 6.078611 7.249847
O 0.560022 3.269345 11.685410
O 5.062132 0.849906 7.855156
O 3.319834 2.605712 11.007393
O 5.607522 6.533353 1.491762
O 6.193326 8.892493 5.539538
O 1.179250 6.078611 11.498885
O 2.734029 4.322961 5.539538
O 3.319834 1.963821 4.757816
O 7.108380 8.880365 9.374366
O 6.193326 8.892493 0.710039
O 5.062132 0.849906 10.893576
O 1.179250 7.629986 1.000270
