52

Li 1.764054 2.469929 6.536560
Li 12.716530 2.529203 0.071814
Li 9.004345 0.029640 1.720755
Li 7.240292 2.499573 3.304179
Li 5.476238 4.969502 4.887610
Li 0.000000 0.000000 0.000000
O 5.411640 1.086247 6.684989
O 14.193462 2.337881 4.521426
O 10.738077 1.999210 -0.564236
O 12.651932 1.413326 1.869200
O 13.470012 4.060414 2.455463
O 12.210506 4.515685 0.251804
O 2.270078 0.483447 6.356570
O 1.010571 0.938718 4.152903
O 1.828652 3.585806 4.739182
O 3.742507 2.999922 7.172602
O 0.287121 2.661261 2.086956
O 3.497785 0.500364 4.251568
O 4.355108 0.193462 1.080142
O 6.229706 3.438286 7.271269
O 1.586638 1.041155 0.709455
O 4.970214 2.983015 5.067601
O 9.068943 3.912894 -0.076623
O 1.499276 3.502880 0.185977
O 5.741001 1.003322 3.118211
O 7.527413 4.837445 5.391135
O 10.982798 4.498778 2.356805
O 5.653669 3.540714 2.594738
O 8.826929 1.458418 4.013634
O 10.125475 4.805670 5.528232
O 6.953171 0.161692 1.217231
O 8.739582 3.995820 3.490163
O 12.981307 1.496252 6.422397
O 11.595399 2.306107 4.384329
O 9.510369 2.016117 1.540773
O 12.893946 3.957987 5.898927
O 8.250877 1.560855 -0.662887
O 2.885184 2.693035 2.224045
P 5.082699 2.584574 6.580239
P 1.552130 2.439419 1.327529
P 5.688147 4.938977 1.976667
P 8.792436 0.060155 4.631715
P 12.928453 2.559723 5.280845
P 9.397870 2.414568 0.028136
P 2.157592 0.085005 4.843931
P 12.322991 4.914127 1.764443
Co 10.242812 2.763848 3.165776
Co 7.240292 0.000000 7.364179
Co 11.478078 0.264279 6.746775
Co 3.002506 4.734862 -0.138401
Co 4.237772 2.235294 3.442590
Co 0.000000 2.499573 4.059992
