32

Li 0.000000 0.000000 3.680182
Li 0.000000 3.196486 3.680182
Li 3.706675 0.000000 0.000000
Li 3.706675 3.196486 0.000000
O 0.342904 4.794730 7.286347
O 0.817270 1.598243 4.875851
O 0.963721 0.365294 1.857314
O 0.963721 2.831192 1.857314
O 1.501166 4.794730 3.681484
O 2.205508 1.598243 0.001303
O 2.742954 3.561781 5.537496
O 2.742954 6.027678 5.537496
O 2.889405 4.794730 1.195669
O 3.363770 1.598243 3.606166
O 4.049579 4.794730 3.754197
O 4.523944 1.598243 6.164694
O 4.670395 0.365294 1.822868
O 4.670395 2.831192 1.822868
O 5.207841 4.794730 7.359060
O 5.912183 1.598243 3.678879
O 6.449629 3.561781 5.503049
O 6.449629 6.027678 5.503049
O 6.596079 4.794730 2.484513
O 7.070445 1.598243 0.074016
P 0.940176 1.598243 0.915541
P 2.766499 4.794730 4.595722
P 4.646850 1.598243 2.764641
P 6.473173 4.794730 6.444822
V 1.236858 4.794730 1.628201
V 2.469817 1.598243 5.308382
V 4.943533 4.794730 2.051981
V 6.176491 1.598243 5.732163
