12

O 3.227304 -1.482281 2.288337
O 4.198005 -0.301417 0.194422
O 4.249297 2.493591 0.162227
O 1.010102 4.095855 0.169693
O 6.096891 -0.374630 2.286772
O 6.146842 -3.033372 2.273596
O 0.911665 1.240323 0.151083
O 3.129668 1.117133 2.251048
Y 2.069398 2.606134 3.606198
Mo 5.173541 1.059462 1.225368
Mo 5.172008 -1.668344 1.233918
Mo 2.069162 -0.120502 1.219832
