20

O 1.995233 -0.207528 7.346413
O 4.555631 -0.780023 6.474164
O 0.225035 5.469307 2.536427
O 0.620821 5.758943 5.317239
O 0.737886 2.775573 0.415251
O 1.324865 2.875139 2.919152
O 1.963465 3.382069 5.437623
O 2.785424 4.896817 3.408677
O 4.042771 1.913716 4.352995
O 1.994387 0.942262 5.071279
O 4.159835 -1.069655 1.379494
O 2.817201 1.307216 1.499879
O 3.455797 1.814148 6.856905
O 2.786279 3.747023 1.133527
P 1.089804 0.226833 6.111647
P 3.690862 4.462452 2.173911
P 1.865672 2.624594 1.483726
P 2.914984 2.064694 5.421479
Mn 3.732568 0.283248 0.066713
Mn 1.048084 4.406042 4.004458
