46

Li 2.130910 4.596902 6.711241
Li 2.130910 7.215610 2.278430
Li 5.154128 0.659398 3.338006
Li 5.154128 3.278106 -1.094806
O 7.198325 2.321639 -1.994991
O 7.039700 7.256717 -2.188102
O 6.185974 4.900420 -1.712967
O 7.198325 1.615865 2.437821
O 7.039700 4.555794 2.244710
O 4.934193 6.801061 -0.503270
O 0.086714 5.553369 7.611427
O 0.245338 0.618290 7.804538
O 1.099065 2.974587 7.329403
O 0.086714 6.259143 3.178615
O 0.245338 3.319213 3.371726
O 2.350845 1.073946 6.119706
O 2.757992 6.549408 6.774347
O 1.099065 0.962917 2.896591
O 2.031972 7.006544 4.610677
O 2.803203 3.889687 4.956491
O 2.350845 2.863557 1.686894
O 2.757992 5.263104 2.341536
O 2.031972 4.805967 0.177865
O 4.481836 7.827191 5.092756
O 2.803203 0.047817 0.523680
O 5.253066 3.069040 5.438571
O 4.527047 2.611904 3.274900
O 4.934193 5.011450 3.929542
O 4.481836 3.985321 0.659944
O 5.253066 0.868464 1.005759
O 6.185974 6.912091 2.719844
O 4.527047 1.325600 -1.157911
P 6.436339 6.255536 -1.153150
P 6.436339 5.556975 3.279662
P 4.340746 0.387206 -0.013578
P 2.944292 4.324710 1.197202
P 4.340746 3.550298 4.419233
P 2.944292 7.487801 5.630014
P 0.848700 1.619472 6.769586
P 0.848700 2.318032 2.336774
Ni 0.000000 0.000000 4.432812
Ni 1.371824 4.926620 3.991036
Ni 0.000000 3.937504 0.000000
Ni 1.371824 6.885891 -0.441775
Ni 5.913215 0.989117 6.058211
Ni 5.913215 2.948387 1.625400
