34

O 1.007399 6.316287 8.451054
O 0.264771 5.959846 4.603234
O 0.704911 2.916553 7.907586
O 2.908319 3.859091 6.826659
O 1.029853 3.276770 5.657649
O 4.162957 4.576319 3.463579
O 6.025488 3.773917 5.868129
O 2.716313 1.582656 6.663889
O 2.086644 3.464710 2.990058
O 3.612350 4.516297 1.337905
O 0.716562 1.225780 2.668388
O 3.024449 1.172751 4.381000
O 4.691896 2.530875 2.430281
O 6.999776 2.477848 4.142896
O 4.103988 -0.812669 5.473378
O 5.629693 0.238919 3.821225
O 5.000025 2.120979 0.147397
O 1.690850 -0.070289 0.943155
O 3.553381 -0.872691 3.347704
O 6.686485 0.426858 1.153635
O 4.808019 -0.155462 -0.015376
O 7.011427 0.787076 -1.096302
O 7.451567 -2.256217 2.208050
O 6.708939 -2.612658 -1.639770
S 1.829521 2.870050 6.862486
S 3.686087 3.761151 2.645771
S 7.300898 3.504229 4.893636
S 0.415440 0.199400 1.917647
S 4.030251 -0.057522 4.165512
S 5.886817 0.833578 -0.051202
V 4.782146 4.058020 7.550829
V 0.986696 2.236309 4.136286
V 6.729642 1.467319 2.674998
V 2.934191 -0.354392 -0.739545
