56

Li 0.958637 7.405383 3.728789
Li 7.921581 3.184348 0.738956
Li 5.398746 5.257712 5.206702
Li 3.481472 1.036686 8.196535
O 3.153143 3.141775 8.305557
O 7.953345 3.463612 7.465835
O 8.353515 5.202383 1.163624
O 8.743294 2.430007 5.267606
O 0.136933 6.651041 8.135631
O 0.526704 0.981340 3.304130
O 0.926873 7.684638 5.937402
O 1.038906 4.414653 6.211283
O 1.051125 7.189679 1.522965
O 1.230523 2.870894 1.080489
O 1.286966 5.300302 3.837820
O 1.337956 0.471473 8.162339
O 1.820613 5.155031 0.171660
O 2.619496 3.287038 4.639414
O 3.102162 7.970604 3.694593
O 5.366982 4.978457 2.998090
O 3.209586 5.571166 5.548234
O 3.388984 1.252389 5.990711
O 3.401212 4.027407 1.743538
O 3.513227 0.757422 1.469665
O 3.913406 7.460720 7.771876
O 7.829085 2.968653 2.944789
O 4.577042 6.012070 0.799852
O 4.966813 3.239686 5.631361
O 7.841321 0.193627 7.191945
O 5.479006 8.248441 2.724199
O 5.491243 5.473424 7.412526
O 5.670623 1.350140 7.855003
O 5.727066 7.362809 5.097680
O 5.778056 3.749562 0.773152
O 6.260723 7.508072 8.763823
O 7.059605 0.934005 4.296077
O 7.542271 4.692498 5.240907
O 7.593253 1.079268 0.629934
O 7.649695 7.091937 3.387266
O 4.303176 1.791035 3.667894
P 5.023300 6.589516 8.310248
P 6.502708 7.903718 3.937415
P 6.817619 0.538359 8.405170
P 8.297028 1.852553 3.842494
P 0.453531 8.024836 7.310134
P 0.583191 6.073579 0.625252
P 2.062591 4.759385 4.998067
P 2.377510 3.682675 0.530330
P 3.856927 2.368481 5.092998
P 3.986587 0.417232 2.842389
P 4.893631 4.638267 1.625357
P 8.426697 3.803810 6.093094
Cr 7.826305 5.027319 3.197548
Cr 5.494013 3.414741 7.665284
Cr 3.386196 7.635775 5.737953
Cr 1.053913 0.806294 1.270198
