44

Li 0.860318 8.179899 6.610758
Li 2.731966 3.902496 4.252559
Li 4.452609 4.652335 0.659631
Li 6.324257 0.374924 -1.698569
O 0.562150 7.516601 1.357576
O 6.007532 0.970545 0.545270
O 4.744260 1.996011 -1.901893
O 6.032606 6.273423 0.862955
O 1.025836 5.105809 5.019489
O 1.177057 7.584287 4.366912
O 2.440322 6.558812 6.814070
O 1.151969 2.281409 4.049235
O 2.415227 3.306875 6.496396
O 1.073535 5.622144 2.834581
O 2.566462 0.828398 5.843813
O 6.158753 3.449022 -0.107306
O 0.581261 1.981921 1.361395
O 0.759834 5.058894 0.674100
O 4.665833 7.210082 5.290679
O 2.832457 0.781492 1.781985
O 4.154434 5.315633 3.813673
O 4.173560 2.295498 3.817493
O 4.769349 5.247947 -1.584207
O 3.030155 3.239190 1.098518
O 4.352118 7.773340 3.130205
O 2.518749 1.344733 -0.378493
O 6.424748 3.495920 4.238078
O 6.603314 6.572901 3.550795
O 6.622439 1.038213 3.554606
O 4.618127 7.726434 -0.931630
O 6.111041 2.932670 2.077600
O 3.011030 6.259333 1.094690
P 6.672638 2.341198 0.706439
P 4.104236 6.618601 -1.745372
P 5.838608 2.322455 3.477364
P 4.938272 6.599875 3.890903
P 0.511937 6.213633 4.205742
P 3.080347 1.936222 6.657567
P 2.246317 1.954957 1.021279
P 1.345974 6.232368 1.434822
Mo 0.922788 4.958726 7.010230
Mo 2.669503 0.681315 3.853075
Mo 4.515072 7.873508 1.059114
Mo 6.261802 3.596088 -2.098047
