26

O 1.594817 -0.481457 7.235392
O 6.234250 -2.052610 7.232292
O 0.543911 3.589982 5.929232
O 0.587328 3.562139 8.496859
O 2.162315 4.158926 3.674107
O 0.587328 2.088931 3.662259
O 0.543904 2.066942 1.094810
O 2.130042 4.143017 1.106408
O 2.162308 1.280061 8.523377
O 2.130036 1.300321 5.955556
O 3.893595 3.280076 8.536411
O 6.234250 1.213102 2.381708
O 1.594817 0.266701 2.393304
O 5.367194 -2.373299 2.394590
O 3.893602 1.925783 3.701401
O 3.844873 1.912810 1.133647
O 5.367207 1.650558 7.220592
O 3.844873 3.299607 5.968529
P 1.456633 0.907180 7.244922
P 4.709864 3.000398 7.236454
P 0.414815 4.248661 7.222679
P 1.456640 4.626838 2.392818
P 0.414815 1.425644 2.392639
P 4.709871 2.095544 2.399938
Cr 2.193039 2.725626 4.815032
Cr 2.193046 2.709228 9.654644
