48

Fe 2.320422 5.748792 9.872645
Fe 2.315321 5.741977 4.295496
Fe 5.263867 4.385290 6.901625
Fe 5.258767 4.378475 1.324476
Li 2.144766 2.890591 11.164494
Li 5.406894 7.249428 5.605830
Li 2.158219 2.883800 8.377891
Li 5.403287 7.219840 8.396250
Li 2.175902 2.907427 2.800871
Li 5.420969 7.243467 2.819230
Li 2.172294 2.877839 5.591291
Li 5.434422 7.236676 0.032627
O 0.766120 6.443198 7.080969
O 0.789471 6.474400 1.503981
O 3.176317 6.848908 8.354793
O 3.200168 6.846383 5.810925
O 1.507144 4.601358 8.362337
O 1.507804 4.619451 2.768232
O 1.522181 4.604267 0.224312
O 3.196106 6.858139 2.794773
O 1.553908 4.587681 5.816759
O 3.233994 6.832603 0.249144
O 5.545844 8.397191 9.796980
O 0.936477 2.238182 4.193781
O 0.949415 2.184230 9.772910
O 5.612086 8.414464 4.222170
O 1.967103 1.712803 6.974951
O 6.629774 7.943037 1.424211
O 6.642711 7.889085 7.003340
O 2.033345 1.730076 1.400141
O 4.345194 3.294665 10.947977
O 6.025280 5.539586 5.380362
O 4.383082 3.269128 8.402349
O 6.057007 5.523000 10.972810
O 6.071385 5.507816 8.428889
O 6.072044 5.525909 2.834784
O 4.379020 3.280884 5.386196
O 4.402872 3.278359 2.842328
O 6.789717 3.652867 9.693140
O 6.813069 3.684069 4.116152
P 2.353664 7.231843 7.086353
P 0.683089 4.999631 1.499782
P 0.689464 4.967220 7.084849
P 2.392780 7.243182 1.517366
P 5.186408 2.884086 9.679756
P 6.889725 5.160047 4.112272
P 6.896099 5.127636 9.697340
P 5.225524 2.895424 4.110768
