72

Li 1.506735 6.786539 9.675770
Li 6.807571 1.866086 2.140832
Li 2.650418 2.460227 8.037403
Li 5.663888 6.192398 3.779199
Cr 2.042276 4.564580 4.531880
Cr 6.199429 8.414357 10.440181
Cr 2.089227 4.015424 10.466727
Cr 2.067926 8.341736 7.246446
Cr 6.225079 4.637201 1.349875
Cr 2.114877 0.238267 1.376422
Cr 6.246380 0.310889 4.570156
Cr 6.272029 4.088045 7.284723
P 5.089985 3.379222 4.232039
P 0.932832 0.947090 10.128610
P 0.291367 2.180678 6.008170
P 7.412919 5.349226 10.074702
P 3.224321 5.273403 7.584564
P 3.865786 6.506990 11.705003
P 4.448519 2.145635 0.111599
P 8.022939 6.471947 5.808432
P 7.381474 7.705534 1.687993
P 5.058540 1.022913 7.650201
P 3.255766 7.629711 4.166401
P 0.901387 3.303399 1.741900
O 7.555293 5.492807 6.883928
O 7.762302 0.971975 10.534476
O 4.736361 7.971144 3.831024
O 3.605149 3.354337 4.626174
O 7.735098 3.644832 2.089007
O 2.308151 8.422335 3.228772
O 2.724831 6.665437 8.054838
O 2.314919 4.793623 6.429036
O 6.006155 0.230290 8.587830
O 5.589483 1.987188 3.761764
O 0.507971 7.568685 6.554900
O 5.659307 2.800759 0.807198
O 1.849002 4.096023 2.679529
O 4.916166 1.166495 10.840975
O 0.983333 1.772205 1.905879
O 4.665124 5.410253 0.658329
O 0.552003 7.680649 1.282127
O 3.577945 0.681481 7.985578
O 6.812152 7.127072 5.112834
O 1.165657 3.710808 0.288645
O 7.806335 1.083940 5.261703
O 7.153520 0.064921 2.844171
O 2.654999 5.851865 11.009404
O 1.432322 2.339125 9.658335
O 7.330973 6.880420 9.910723
O 6.465304 4.556602 9.137074
O 3.573788 1.507382 1.223789
O 5.322810 0.615504 6.196946
O 4.709156 5.298288 7.190428
O 5.317938 4.391233 3.075861
O 0.583365 5.833695 4.684512
O 0.579208 5.007793 9.727595
O 2.996368 4.261392 8.740742
O 3.649182 3.242372 11.158274
O 4.740518 7.145242 10.592813
O 3.398140 7.486130 0.975627
O 5.140486 2.554108 7.814180
O 1.502154 1.525553 6.703769
O 5.999387 3.859001 5.387567
O 0.759013 3.159817 4.932674
O 2.991495 8.037120 5.619657
O 1.160785 8.587704 8.972432
O 7.730941 2.818930 7.132090
O 7.148648 4.941817 11.527958
O 1.842234 0.467311 11.284138
O 6.472072 8.185314 0.532465
O 6.881975 6.313500 2.158267
O 3.173820 6.098517 4.002422
