44

Li 0.404640 10.016351 3.804718
Li 4.234474 3.783304 0.193760
Li 6.220308 4.306133 6.033890
Li 3.610606 -0.198132 2.704909
O 2.923951 8.325219 9.260247
O 6.103413 6.926934 4.294817
O 5.988327 0.234745 0.020335
O 6.139722 2.877319 -0.746738
O 0.066398 6.803185 9.470829
O 0.536084 9.476004 8.963447
O 0.277103 2.875934 4.787850
O 0.127562 7.610447 4.772948
O 1.678049 0.128036 6.681152
O 1.328774 5.571163 5.899566
O 2.379092 4.229421 7.565162
O 3.965540 5.308436 5.789486
O 2.050604 8.078712 5.810780
O 0.880454 1.371427 0.717578
O 2.517895 0.241460 4.441764
O 4.845203 9.508030 2.330144
O 1.848358 1.872686 2.500479
O 2.497249 4.471820 3.371328
O 6.375321 2.243588 4.307879
O 4.561649 8.198985 6.510628
O 3.689178 6.781604 3.402229
O 3.907762 9.625239 4.577407
O 5.768526 8.137807 8.262500
O 4.393414 1.703419 3.277845
O 3.661296 1.438930 -0.348576
O 4.138894 5.378131 1.525894
O 5.099188 4.227032 3.282221
O 2.751125 3.021194 5.632235
P 2.679455 4.576593 6.224149
P 3.759631 5.190828 2.882822
P 5.935261 7.628728 6.953498
P 4.522090 -0.103208 -0.228156
P 0.749718 7.359079 5.888597
P 1.996238 9.820192 9.182168
P 0.521155 2.096661 1.975949
P 5.680948 2.454003 3.221786
Fe 4.661684 7.543090 1.642635
Fe 4.080961 7.446904 5.052259
Fe 2.275948 2.458327 4.025891
Fe 1.830333 2.065558 7.305102
