48

V 4.144431 7.387999 6.251420
V 1.381477 0.360548 11.152698
V 4.144431 3.513726 2.450639
V 1.381477 4.234821 14.953479
V 1.381477 4.718741 6.632483
V 4.144431 3.029806 10.771635
V 1.381477 0.844468 2.069559
V 4.144431 6.904079 15.334542
F 2.666593 6.960969 10.903384
F 5.429547 0.787578 6.500734
F 0.096361 3.086695 15.202793
F 2.859315 4.661851 2.201325
F 2.859315 0.787578 6.500734
F 0.096361 6.960969 10.903384
F 5.429547 4.661851 2.201325
F 2.666593 3.086695 15.202793
F 4.144431 5.821669 16.733694
F 1.381477 1.926878 0.670424
F 4.144431 1.947396 9.372483
F 1.381477 5.801151 8.031635
F 4.144431 7.502995 13.675669
F 1.381477 0.245551 3.728449
F 4.144431 3.628722 12.430509
F 1.381477 4.119825 4.973610
F 2.859243 0.186283 15.905032
F 0.096289 7.562264 1.499086
F 5.429619 4.060556 10.201145
F 2.666665 3.687990 7.202973
F 2.666665 7.562264 1.499086
F 5.429619 0.186283 15.905032
F 0.096289 3.687990 7.202973
F 2.859243 4.060556 10.201145
F 2.764844 5.648001 14.622610
F 0.001890 2.100546 2.781509
F 5.524018 1.773727 11.483568
F 2.761064 5.974819 5.920550
F 2.761064 2.100546 2.781509
F 5.524018 5.648001 14.622610
F 0.001890 5.974819 5.920550
F 2.764844 1.773727 11.483568
F 1.381477 4.884451 16.596985
F 4.144431 2.864095 0.807133
F 1.381477 1.010178 9.509193
F 4.144431 6.738368 7.894926
F 1.381477 4.152144 13.190929
F 4.144431 3.596403 4.213189
F 1.381477 0.277871 12.915248
F 4.144431 7.470676 4.488870
