72

Li 0.205179 3.059300 2.720674
Li 4.665669 7.817046 4.040673
Li 5.076008 1.698426 9.482020
Li 9.536508 6.456162 10.802024
O 1.985052 4.530402 4.609451
O 8.288560 2.086429 10.417159
O 6.855891 0.227344 11.370802
O 7.991624 9.243653 9.477096
O 0.012167 9.385586 2.161215
O 6.324277 2.138812 8.225334
O 6.620892 4.485917 10.806957
O 7.756625 4.985070 8.913251
O 6.323956 6.844174 9.866894
O 9.362414 6.937226 5.336262
O 7.700650 6.993510 7.559554
O 8.036689 2.168195 6.505492
O 1.453439 2.618915 1.463983
O 1.453117 7.429033 3.105543
O 2.885787 9.288138 2.151900
O 1.750053 0.271809 4.045606
O 9.729520 0.129877 11.361483
O 0.350613 4.572441 6.293552
O 3.120785 5.029555 2.715745
O 8.288239 6.896548 12.058719
O 3.417721 2.671307 3.655799
O 0.379263 2.578246 8.186448
O 2.041028 2.521962 5.963148
O 1.704979 7.347286 7.017205
O 3.417400 7.376660 5.297368
O 3.155709 -0.003530 6.495788
O 3.224593 4.738553 6.703651
O 1.646256 9.496298 8.852889
O 4.858671 4.627859 4.600127
O 5.221442 0.185304 4.259723
O 1.715120 4.754196 9.060743
O 3.165860 2.589541 8.539313
O 2.829811 7.279698 9.593379
O 4.491576 7.335982 7.370087
O 5.250102 2.179500 6.152623
O 6.911866 2.235774 3.929315
O 6.575817 6.925922 4.983381
O 8.026548 4.761266 4.461963
O 4.520236 9.330168 9.262988
O 4.883006 4.887622 8.922575
O 8.095422 0.019183 4.669821
O 6.517094 4.776910 6.819064
O 6.585968 9.519012 7.026914
O 9.391074 4.943040 7.229163
P 8.303845 0.581804 10.558966
P 7.891324 5.467333 7.593642
P 6.308671 5.339540 9.725086
P 6.590975 1.538271 7.015597
P 8.021541 6.296007 4.473289
P 3.020485 8.805875 9.627467
P 6.721192 0.709597 3.895227
P 1.720137 3.219465 9.049422
P 3.150692 7.977201 6.507109
P 3.433006 4.175931 3.797616
P 1.850354 4.048139 5.929060
P 1.437833 8.933667 2.963735
Ni 1.398613 6.033456 1.797838
Ni 0.065532 8.300822 7.940996
Ni 3.472226 1.275720 4.963513
Ni 1.771923 1.254996 7.329256
Ni 3.098925 6.012722 8.227266
Ni 4.936381 5.972386 5.907185
Ni 4.805297 3.543076 7.615526
Ni 6.642762 3.502750 5.295440
Ni 7.969754 8.260486 6.193437
Ni 6.269442 8.239752 8.559175
Ni 9.676135 1.214650 5.581701
Ni 8.343065 3.482016 11.724864
