56

Li 5.304967 5.304967 5.304967
Li 3.182985 1.060995 7.426966
Li 7.426966 3.182985 1.060995
Li 1.060995 7.426966 3.182985
O 0.962840 5.206821 7.525120
O 1.120598 7.351754 1.045394
O 5.364569 5.380179 7.442567
O 7.351754 1.045394 1.120598
O 1.136207 5.289375 3.123383
O 1.045394 1.120598 7.351754
O 3.198595 7.367363 3.107773
O 3.242588 7.411356 7.502178
O 7.486568 5.320576 0.985792
O 5.245382 3.167384 5.229772
O 5.320576 0.985792 7.486568
O 5.229772 5.245382 3.167384
O 0.985792 7.486568 5.320576
O 7.411356 7.502178 3.242588
O 7.502178 3.242588 7.411356
O 3.167384 5.229772 5.245382
O 1.076596 3.258197 1.001401
O 3.258197 1.001401 1.076596
O 7.442567 5.364569 5.380179
O 5.289375 3.123383 1.136207
O 3.281149 3.281149 3.281149
O 1.159150 3.084831 5.403130
O 5.403130 1.159150 3.084831
O 3.084831 5.403130 1.159150
O 3.107773 3.198595 7.367363
O 7.525120 0.962840 5.206821
O 5.380179 7.442567 5.364569
O 7.328802 7.328802 7.328802
O 1.001401 1.076596 3.258197
O 7.367363 3.107773 3.198595
O 3.123383 1.136207 5.289375
O 5.206821 7.525120 0.962840
Fe 1.060995 3.116618 7.493333
Fe 2.146469 2.146469 2.146469
Fe 0.024488 4.219501 4.268468
Fe 4.219501 4.268468 0.024488
Fe 4.268468 0.024488 4.219501
Fe 6.390450 2.097502 6.341483
Fe 2.097502 6.341483 6.390450
Fe 6.341483 6.390450 2.097502
Fe 8.463473 8.463473 8.463473
Fe 5.304967 1.127354 0.994628
Fe 5.238608 7.426966 7.360598
Fe 5.371343 3.249353 3.182985
Fe 3.116618 7.493333 1.060995
Fe 7.493333 1.060995 3.116618
Fe 0.994628 5.304967 1.127354
Fe 3.249353 3.182985 5.371343
Fe 7.360598 5.238608 7.426966
Fe 1.127354 0.994628 5.304967
Fe 3.182985 5.371343 3.249353
Fe 7.426966 7.360598 5.238608
