28

Li 1.573402 4.842417 3.463771
Li 8.625747 1.445762 1.575067
Li 6.672967 4.842417 4.094493
Li 3.526172 1.445762 0.944350
O 1.194096 6.557167 4.430483
O 8.555587 1.863198 3.523008
O 8.563461 4.421156 3.516644
O 9.005064 3.160505 0.608365
O 0.538454 3.128889 3.749342
O 3.905489 3.160505 1.911057
O 1.635699 1.024481 1.522194
O 6.743127 5.259873 1.003586
O 3.456012 1.863198 4.035256
O 3.463876 4.421156 4.041620
O 9.660706 6.525551 1.289500
O 4.561131 6.525551 1.229916
O 5.638018 3.128889 3.808922
O 6.293671 6.557167 3.127781
O 6.735273 1.024481 0.997222
O 1.643552 5.259873 1.515840
P 0.972672 6.538601 0.931425
P 4.126902 3.141932 3.450856
P 6.072257 6.538601 1.587991
P 9.226467 3.141932 4.107408
Co 8.621902 4.861336 1.578463
Co 6.676822 1.464674 4.097884
Co 3.522327 4.861336 0.940953
Co 1.577247 1.464674 3.460380
