26

Li 6.985963 5.136304 1.748132
Li 4.613450 1.051670 0.299502
Li 3.119492 7.117596 4.489371
Li 0.746979 3.032963 3.040741
Nb 0.000000 0.000000 2.567838
Nb 3.866471 4.084633 -0.173401
P 2.293049 5.642283 2.276675
P 5.439893 2.526983 2.512198
P 1.573422 1.557650 0.117761
P 6.159521 6.611616 4.671112
O 5.865823 1.077984 2.113744
O 5.733590 5.162617 -0.066110
O 1.999352 3.006649 4.854983
O 2.736101 0.601095 0.131293
O 1.867119 7.091282 2.675129
O 3.428555 5.272657 3.317431
O 4.304388 2.896609 1.471442
O 4.742320 2.564112 3.915190
O 1.130371 4.685728 2.263143
O 4.996842 7.568172 4.657580
O 6.602572 3.483538 2.525730
O 6.857094 6.648745 3.268119
O 0.875849 1.520521 1.520754
O 7.295026 6.981242 0.576192
O 2.990623 5.605154 0.873683
O 0.437917 1.188024 4.212681
