36

Li 1.429212 6.038532 9.753320
Li 5.933191 -1.649545 5.171941
Ni 0.000000 3.457686 1.340714
Ni 0.000000 0.000000 4.357899
P 3.733298 3.538578 10.659353
P 5.420113 0.035906 7.904385
P 7.360452 2.243173 8.019889
P 2.199201 1.048541 10.254737
P 3.629105 0.850408 4.265908
P 5.163202 3.340445 4.670523
P 1.942290 4.353080 7.020876
P 0.001951 2.145813 6.905372
O 3.669996 -0.202955 7.360072
O 5.937535 0.159159 9.443614
O 5.191878 0.280539 4.793600
O 3.850713 2.372811 4.666398
O 7.044575 -0.067805 11.702593
O 3.692407 4.591941 7.565189
O 2.277905 0.548301 4.665191
O 5.084497 3.840685 10.260070
O 1.424868 4.229827 5.481647
O 1.554446 2.929407 7.011864
O 2.170525 4.108447 10.131661
O 0.317828 4.456792 3.222668
O 6.519967 2.606607 13.034809
O 3.197322 0.451097 2.698854
O 5.533302 4.365506 5.914399
O 0.898419 5.273445 7.636284
O 0.842436 1.782379 1.890451
O 0.213561 0.770475 6.293494
O 7.148842 3.618511 8.631767
O 6.463984 -0.884459 7.288976
O 3.511689 2.016176 10.258863
O 5.807957 1.459580 7.913397
O 1.829101 0.023474 9.010859
O 4.165081 3.937889 12.226407
