36

Li 1.541348 6.065473 9.824148
Li 5.754188 -1.698834 5.102191
O 4.198117 3.918886 12.240774
O 6.998644 -0.053310 11.764598
O 0.296892 4.419957 3.161735
O 0.801560 5.257130 7.493885
O 1.441801 4.150570 5.416479
O 3.675713 4.578839 7.576261
O 2.153078 4.056222 10.154414
O 0.892243 1.882790 1.891709
O 1.548170 2.949089 7.052184
O 5.525422 4.357004 5.896989
O 3.548917 1.983132 10.268725
O 3.746611 2.383518 4.657604
O 5.053197 3.838170 10.258117
O 0.223725 0.795007 6.284267
O 5.853720 0.216082 9.509855
O 2.242324 0.528482 4.668217
O 6.493969 -0.890495 7.432448
O 3.097411 0.447756 2.685561
O 1.770107 0.009638 9.029347
O 5.747366 1.417558 7.874149
O 6.403278 2.483848 13.034629
O 5.142436 0.310425 4.771923
O 3.619815 -0.212196 7.350074
O 7.071804 3.571643 8.642062
P 3.550398 0.871685 4.242644
P 2.168041 1.040061 10.234347
P 7.293114 2.189931 8.010193
P 1.962643 4.345747 6.993034
P 0.002422 2.176709 6.916146
P 5.127494 3.326586 4.691986
P 3.745130 3.494950 10.683689
P 5.332893 0.020900 7.933308
Cr 7.295521 -2.490591 7.941515
Cr 0.000000 3.428618 1.305831
