92

Li 8.999200 11.109705 0.848730
Li 0.870181 2.358826 13.108896
Li 2.217173 1.870530 6.127913
Li 0.874223 6.286984 6.104159
Li 2.193454 6.934485 13.094293
Li 3.101840 8.140037 7.815905
Li 3.045511 9.310792 0.850189
Li 7.604818 11.553494 7.890410
Li 8.964515 7.167338 7.857587
Li 6.556897 8.994272 12.361637
Li 7.665120 6.391047 0.882149
Li 6.753852 5.279362 6.159445
O 3.260974 8.012944 11.765361
O 2.483478 1.942687 2.214309
O 1.018124 3.749592 2.425084
O 2.383269 1.221408 13.008254
O 0.837316 2.546064 9.175422
O 0.005635 2.076628 6.009548
O 9.830252 11.383440 7.952644
O 9.022870 10.908062 4.778625
O 7.631881 12.263242 1.091072
O 8.713375 9.681864 11.543815
O 7.326457 11.470407 11.733340
O 8.000518 9.743660 2.341420
O 8.816779 8.539693 4.565999
O 9.834598 6.997203 0.990355
O 0.000433 1.813304 3.483497
O 9.053464 7.385869 11.755825
O 6.662849 10.252219 9.331732
O 6.096715 10.685414 4.550119
O 7.987695 8.355071 9.318686
O 6.551518 8.957526 7.291707
O 6.563840 8.965931 0.297875
O 6.634369 7.682403 2.336720
O 4.809209 9.947221 11.550855
O 5.039373 9.442216 2.323753
O 7.353166 6.533511 4.784805
O 7.729218 5.717423 10.515650
O 7.423282 5.861504 13.054890
O 7.463965 5.808994 7.977617
O 6.155041 7.271845 11.546841
O 5.029815 8.294285 9.324518
O 3.280435 9.475048 4.738151
O 6.547643 5.428879 2.260081
O 7.690118 3.952399 3.650057
O 4.753961 7.674742 4.527565
O 7.404489 12.207018 6.103180
O 2.388393 9.689000 7.920805
O 2.118066 9.575384 10.461863
O 5.090540 5.793451 9.426746
O 6.574205 3.992625 9.240121
O 1.012833 4.913023 9.379320
O 4.795707 5.185772 4.628538
O 3.735729 6.275759 2.441216
O 2.398493 7.645239 0.940776
O 2.392189 7.645379 5.997670
O 2.088830 7.766286 3.467009
O 2.476368 6.921671 9.184516
O 4.721912 3.998504 11.543951
O 5.143968 3.400446 2.413112
O 3.195214 5.770639 11.631309
O 3.240991 4.464648 6.632228
O 3.213239 4.439446 13.627455
O 1.808787 3.713233 11.588407
O 3.783631 2.714261 9.392894
O 3.204536 3.206151 4.584719
O 0.804942 6.083095 2.203226
O 9.833428 11.616300 10.486333
O 0.011221 6.413467 12.964020
O 1.835132 5.087770 4.593447
P 3.162801 8.137240 4.742012
P 2.286542 6.920992 2.202285
P 3.256234 4.487358 12.112023
P 3.270090 4.482608 5.123217
P 0.885542 6.220087 9.174959
P 2.311973 1.898277 9.189981
P 8.924639 11.024174 11.752918
P 7.529057 11.533154 4.820778
P 8.950640 7.231975 4.784408
P 6.555678 8.973533 8.804932
P 6.565669 8.956741 1.807332
P 7.562000 6.545817 11.790910
P 6.678426 5.329321 9.234970
P 3.164000 9.339568 11.748311
P 6.734607 4.114547 2.282654
P 0.888728 2.427127 2.210571
Cr 9.831550 8.616250 10.458898
Cr 5.589841 2.811473 10.516157
Cr 4.262419 6.972474 10.471867
Cr 5.566387 6.495833 3.497876
Cr 4.296631 10.658028 3.450259
Cr 9.823889 9.748925 3.506850
