72

Li 0.000000 0.082474 2.485983
Li 0.000000 8.305813 7.457949
Li 6.583259 4.111670 7.457949
Li 6.583259 4.276617 2.485983
O 0.818075 1.477706 6.251869
O 0.818075 6.910581 1.279903
O 1.068595 3.743734 1.162386
O 1.068595 4.644552 6.134352
O 1.252478 0.818529 3.775930
O 1.252478 7.569758 8.747895
O 1.841325 3.196667 8.721454
O 1.841325 5.191620 3.749489
O 2.323456 2.900225 4.731919
O 2.323456 5.488062 9.703885
O 3.056713 0.686447 5.619356
O 3.056713 7.701840 0.647390
O 3.526547 3.507696 0.647390
O 3.526547 4.880590 5.619356
O 4.259803 1.293918 9.703885
O 4.259803 7.094368 4.731919
O 4.741935 0.997476 3.749489
O 4.741935 7.390810 8.721454
O 5.330781 3.375614 8.747895
O 5.330781 5.012672 3.775930
O 5.514665 0.450409 6.134352
O 5.514665 7.937878 1.162386
O 5.765184 2.716438 1.279903
O 5.765184 5.671849 6.251869
O 7.401335 2.716438 3.692062
O 7.401335 5.671849 8.664028
O 7.651854 0.450409 8.781546
O 7.651854 7.937878 3.809580
O 7.835738 3.375614 6.168002
O 7.835738 5.012672 1.196036
O 8.424584 0.997476 1.222477
O 8.424584 7.390810 6.194443
O 8.906716 1.293918 5.212012
O 8.906716 7.094368 0.240047
O 9.639972 3.507696 4.324576
O 9.639972 4.880590 9.296542
O 10.109806 0.686447 9.296542
O 10.109806 7.701840 4.324576
O 10.843063 2.900225 0.240047
O 10.843063 5.488062 5.212012
O 11.325194 3.196667 6.194443
O 11.325194 5.191620 1.222477
O 11.914041 0.818529 1.196036
O 11.914041 7.569758 6.168002
O 12.097924 3.743734 3.809580
O 12.097924 4.644552 8.781546
O 12.348444 1.477706 8.664028
O 12.348444 6.910581 3.692062
P 1.738020 1.424339 5.032524
P 1.738020 6.963947 0.060559
P 2.098783 3.935818 0.070065
P 2.098783 4.452469 5.042031
P 4.484477 0.258326 5.042031
P 4.484477 8.129961 0.070065
P 4.845239 2.769804 0.060559
P 4.845239 5.618483 5.032524
P 8.321279 2.769804 4.911407
P 8.321279 5.618483 9.883373
P 8.682042 0.258326 9.873867
P 8.682042 8.129961 4.901901
P 11.067736 3.935818 4.901901
P 11.067736 4.452469 9.873867
P 11.428499 1.424339 9.883373
P 11.428499 6.963947 4.911407
Sn 0.000000 3.196877 7.457949
Sn 0.000000 5.191410 2.485983
Sn 6.583259 0.997267 2.485983
Sn 6.583259 7.391020 7.457949
