22

Li 0.029781 4.461030 -0.811665
Li 6.346006 2.693595 3.888251
O 1.996089 1.653513 4.090067
O 6.059950 4.662170 3.250930
O 0.315838 2.492449 -0.174335
O 0.219340 5.912572 2.255893
O 1.331074 2.414402 1.919829
O 3.802441 1.927310 2.387360
O 2.109138 0.610323 0.425151
O 5.044726 4.740237 1.156756
O 2.573360 5.227323 0.689240
O 6.156460 1.242055 0.820710
O 3.775305 3.041103 -0.106003
O 4.266656 6.544309 2.651444
O 4.379698 5.501118 -1.013477
O 2.600489 4.113529 3.182605
P 2.510788 2.524969 2.936534
P 3.865006 4.629663 0.140061
P 0.835305 1.477595 0.828901
P 5.540488 5.677031 2.247697
Cr 4.098966 1.138354 0.750834
Cr 2.276828 6.016278 2.325768
