52

O 5.384740 2.651525 3.143174
O 8.107321 2.365884 7.388644
O 7.670797 3.193866 5.046554
O 7.618680 1.111368 3.270185
O 0.376619 6.604520 5.611451
O 0.813143 7.432494 7.953559
O 0.865260 5.349988 1.063174
O 0.833751 3.458882 2.804339
O 1.142770 1.587103 5.523562
O 1.214255 3.961710 6.446292
O 1.336602 7.125431 3.362425
O 1.605586 0.678409 1.201374
O 1.828136 3.082288 0.480796
O 2.413834 5.394977 4.814155
O 2.636393 7.798847 5.534734
O 2.905368 1.351826 7.695793
O 3.027715 4.515538 2.112924
O 3.099200 6.890144 1.190203
O 3.408219 5.018366 7.137707
O 3.376710 3.127260 5.396542
O 3.428827 1.044762 3.620191
O 3.865351 1.872745 1.278084
O 4.618589 6.111364 3.055284
O 7.341171 5.825732 7.476542
O 5.107230 7.365888 7.603553
O 5.075721 0.779738 5.862397
O 7.650190 7.697518 1.529029
O 5.456226 0.276918 2.220435
O 5.578590 5.590462 5.304311
O 5.847556 3.560227 7.465362
O 6.070107 1.156340 8.185940
O 6.655804 7.320908 3.852572
O 6.878363 4.917029 3.131994
O 7.147338 2.886794 0.970943
O 7.269685 8.200338 6.553803
O 5.055113 5.283391 0.713177
P 5.779591 0.105126 7.010159
P 5.969529 5.856207 3.891858
P 6.756389 2.621049 8.225218
P 6.946311 8.372130 2.676791
P 0.272844 2.726981 5.969050
P 1.537621 4.133510 1.656577
P 1.727559 6.859669 4.774877
P 2.514411 1.617579 0.441510
P 2.704349 4.343755 5.989945
P 3.969135 5.750275 1.635682
P 4.514814 1.511656 2.697678
P 8.211105 6.965609 7.031045
Co 7.360701 3.039096 3.057512
Co 5.365210 5.438160 7.390880
Co 3.118730 1.199523 5.609233
Co 1.123240 7.277733 1.275865
