32

Li 2.641632 3.800691 6.743578
Li 2.641622 3.800686 3.413064
Li 2.641632 8.761137 7.598381
Li 5.283249 10.081597 5.588278
O 4.433300 5.589993 6.280302
O 4.192183 3.032399 7.666894
O 1.694847 2.445952 5.072265
O 4.206538 2.961845 4.250493
O 1.487675 1.710641 2.859281
O 3.588402 5.155433 8.414878
O 1.091071 4.568968 5.820262
O 0.849949 2.011392 7.206848
O 1.673466 6.656296 7.170644
O 4.375454 8.114606 8.487984
O 3.795574 5.890734 3.966857
O 1.076722 4.639525 2.575648
O 4.216217 10.441836 3.695713
O 4.226360 8.010038 5.209144
O 2.246403 7.681756 2.872647
O 0.907811 9.407668 6.708778
O 3.609794 10.865965 8.026115
O 3.036852 9.840503 5.663092
O 1.056894 9.512240 3.326598
O 1.067038 7.080442 4.840029
P 0.577370 0.898238 1.659777
P 0.734441 5.937704 5.923907
P 4.705890 6.703132 5.166351
P 4.548819 11.584557 9.272858
V 2.523747 1.261928 4.592071
V 5.283249 5.121152 8.063984
V 2.759507 6.339449 2.234056
V 2.641622 8.761131 4.267861
