24

Li 3.839806 0.058200 7.076681
Li 1.274875 6.340922 2.026242
Li 1.274875 3.257761 2.026242
Li 3.839806 3.141361 7.076681
C 3.739154 4.799341 0.844959
C 1.375527 1.599780 8.257963
O 2.714412 4.799341 1.651403
O 4.917663 4.799341 1.481258
O 2.400268 1.599780 7.451520
O 0.935608 6.040163 5.830966
O 0.935608 3.558520 5.830966
O 0.926576 4.799341 3.619065
O 4.188105 1.599780 5.483857
O 4.179073 2.840602 3.271956
O 4.179073 0.358959 3.271956
O 2.089843 1.599780 3.960136
O 3.583309 4.799341 8.168881
O 1.531371 1.599780 0.934042
O 3.024837 4.799341 5.142787
O 0.197017 1.599780 7.621664
P 3.645872 1.599780 4.004293
P 1.468808 4.799341 5.098629
Ti 4.063997 4.799341 3.349523
Ti 1.050683 1.599780 5.753400
