48

O 0.415472 8.358912 4.027054
O 0.984946 11.357808 3.891429
O 0.670235 2.735781 1.564942
O 1.427427 18.320930 1.159115
O 1.645372 13.699387 4.538870
O 1.804584 15.940269 2.079314
O 2.028219 2.554558 3.694473
O 2.003839 8.660317 1.113956
O 2.131113 17.886611 3.571727
O 2.106734 11.780852 1.236702
O 2.330368 6.713975 4.537086
O 2.489581 4.473092 2.081099
O 2.707526 9.094635 3.616887
O 3.464718 11.962075 4.022714
O 3.150007 2.131514 1.433658
O 3.719481 17.585207 1.569282
O 4.550425 0.867382 4.027054
O 5.119899 16.321075 3.891429
O 4.805187 6.490514 1.564942
O 5.562380 9.357954 1.159115
O 5.780325 13.979497 4.538870
O 5.939537 11.738614 2.079314
O 6.163172 6.671737 3.694473
O 6.138792 0.565978 1.113956
O 6.266066 9.792272 3.571727
O 6.241686 15.898031 1.236702
O 6.465321 2.512320 4.537086
O 6.624533 4.753202 2.081099
O 6.842479 0.131659 3.616887
O 7.599671 15.716808 4.022714
O 7.284960 7.094781 1.433658
O 7.854434 10.093677 1.569282
P 2.077375 12.225615 4.638066
P 1.894048 8.168094 4.571760
P 2.240905 17.394388 2.113989
P 2.057577 2.999321 2.180294
P 6.212328 15.453268 4.638066
P 6.029001 1.058201 4.571760
P 6.375857 10.284495 2.113989
P 6.192530 6.226974 2.180294
Sn 0.445186 14.375600 2.733612
Sn 1.482314 10.157670 2.334814
Sn 2.652638 0.931376 4.792586
Sn 3.689767 5.149306 0.275841
Sn 4.580138 13.303283 2.733612
Sn 5.617267 17.521213 2.334814
Sn 6.787591 8.294919 4.792586
Sn 7.824720 4.076989 0.275841
