55

Li 0.078241 0.985683 2.740279
Li 9.042886 4.152030 1.473655
Li 6.649320 -0.422871 6.333688
Li 5.863708 3.664240 2.916473
Li 3.257410 1.473475 1.297462
Li 2.471807 5.560601 -2.119760
O 2.999893 6.754060 4.603206
O 5.981909 -1.030587 4.637175
O 8.090066 -2.504976 4.189250
O 5.462643 4.925428 4.144223
O 6.771397 0.826911 1.059832
O 8.024886 2.948599 0.394848
O 6.621181 -1.665452 2.364223
O 6.121225 -1.616327 -0.389267
O 8.787686 1.151659 3.211064
O 1.031061 7.642689 0.024675
O 0.222172 5.601836 -1.720236
O 0.333450 3.986067 1.002855
O 8.223763 3.542059 3.189638
O 2.499946 6.803164 1.849710
O 1.096232 2.189116 3.819087
O 2.349730 4.310810 3.154108
O 7.567188 4.704217 -2.731127
O 3.139209 6.168303 -0.423240
O 1.553939 0.433504 6.945066
O 2.725311 3.076204 5.342007
O 2.490177 3.255990 -0.353587
O 8.898946 -0.464112 5.934168
O 3.991405 2.413657 3.341671
O 5.357951 5.130958 1.533026
O 4.241242 0.531707 6.096640
O 4.879885 4.606014 -1.882708
O 3.763185 0.006760 2.680903
O 5.129713 2.724059 0.872256
O 3.658484 0.212293 0.069708
O 6.630950 1.881723 4.567520
O 6.395816 2.061509 -1.128065
O 0.897364 1.595662 1.024293
P 2.581179 7.209877 0.420154
P 0.875665 2.922653 0.215201
P 2.591805 2.993440 3.882392
P 3.130325 -0.128765 7.169404
P 5.990802 5.266494 -2.955467
P 6.529322 2.144273 0.331541
P 8.245453 2.215063 3.998726
P 6.539948 -2.072148 3.793783
Fe 8.570220 2.947757 -1.653151
Fe 5.214047 -0.749357 1.168541
Fe 4.950291 0.700121 4.082411
Fe 4.560564 2.568860 6.301990
Fe 4.170827 4.437603 0.131522
Fe 0.000000 0.000000 0.000000
Fe 3.907080 5.887078 3.045391
Fe 0.550907 2.189955 5.867085
Fe 0.000009 4.173770 2.907364
