22

Li 4.004055 0.368505 2.942223
Li 0.864642 4.045462 7.003969
Co 3.813441 0.037732 8.117196
Co 1.055256 4.376235 4.055450
P 1.041127 0.089613 6.397445
P 2.924480 1.848888 5.535550
P 3.827570 4.324354 2.335707
P 1.944217 2.565079 1.473805
O 2.923141 3.657410 1.251456
O 3.656942 1.598267 6.895431
O 2.918312 1.253897 1.453983
O 4.234384 -1.157687 1.608793
O 0.900884 2.784706 0.312998
O 0.272652 5.559350 2.688762
O 3.967813 1.629260 4.374744
O 4.596045 -1.145384 6.750508
O 1.945556 0.756556 5.313194
O 1.950385 3.160070 5.515729
O 0.634313 5.571654 5.670539
O 2.937898 4.748863 3.577391
O 1.211755 2.815700 2.833685
O 1.930799 -0.334896 7.639137
