40

Cr 1.914532 1.842500 8.008196
Cr 1.914532 2.194352 3.571350
Cr 4.931250 5.878521 2.355049
Cr 4.931250 6.232037 -2.081798
P 0.467651 3.787456 6.069260
P 0.467651 0.249397 1.632413
P 6.378494 7.825116 4.294335
P 6.378494 4.285442 -0.142512
P 3.200286 4.741558 4.879950
P 3.645270 0.705585 5.483393
P 3.200286 7.369000 0.443103
P 3.645270 3.331267 1.046546
O 0.768396 3.215918 7.337293
O 0.768396 0.820934 2.900447
O 6.077207 7.252892 3.026366
O 6.077207 4.857666 -1.410481
O 0.954791 0.443198 7.078399
O 0.954791 3.593655 2.641552
O 5.890963 4.479671 3.285222
O 5.890963 7.630887 -1.151624
O 0.586834 2.693606 5.010895
O 0.586834 1.343247 0.574049
O 6.259050 6.730757 5.352820
O 6.259050 5.379801 0.915974
O 1.609063 4.953436 5.584952
O 1.609063 7.157122 1.148105
O 5.236603 0.917116 4.778654
O 5.236603 3.119736 0.341808
O 3.305032 1.829817 6.474796
O 3.540531 5.866370 3.888774
O 3.305032 2.207036 2.037950
O 3.540531 6.244188 -0.548073
O 2.700378 0.763530 4.413565
O 4.145212 4.800375 5.950082
O 2.700378 3.273322 -0.023282
O 4.145212 7.310183 1.513236
O 3.590142 7.404855 6.099897
O 3.255373 3.367647 4.263632
O 3.590142 4.705703 1.663050
O 3.255373 0.669205 -0.173214
