18

Fe 3.270676 8.799842 0.831691
Fe 3.269104 3.577214 4.325269
Si 0.608093 5.684467 0.450304
Si 5.929741 6.687621 4.703136
Si 5.930998 7.804315 1.966999
Si 0.606606 4.567340 3.188868
O 5.138140 6.948979 3.295137
O 1.376562 7.125066 0.287457
O 1.746879 2.803517 0.805423
O 1.391643 5.412635 1.855074
O 5.170384 5.251038 4.871136
O 4.790418 9.573590 4.353050
O 5.163558 8.633590 1.716144
O 4.792258 10.532298 1.642161
O 5.147842 6.910242 0.774292
O 1.396163 5.460094 4.384915
O 1.745477 1.848272 3.507987
O 1.368446 3.737187 3.443668
