34

Sb 5.806513 4.900551 9.364353
Sb 1.274160 6.629267 4.545911
P 2.058472 8.266597 9.665369
P 2.928814 6.678801 7.947055
P 4.151859 4.851016 5.963210
P 5.022201 3.263220 4.244895
P 4.829140 9.184820 11.487477
P 0.031396 4.763425 6.935387
P 2.251534 2.344997 2.422788
P 7.049278 6.766392 6.974878
O 1.516114 5.321338 7.951289
O 5.820554 8.212622 11.170528
O 3.394744 2.265327 3.705078
O 2.821294 5.108623 4.997026
O 3.063581 3.137012 9.246775
O 1.260119 3.317196 2.739736
O 0.016165 3.300006 6.676760
O 7.000244 9.350866 9.422570
O 0.080429 2.178952 4.487695
O 4.259379 6.421195 8.913239
O 0.962363 1.184568 6.735702
O 1.679833 6.974192 10.472818
O 7.064508 8.229812 7.233504
O 3.981257 4.380008 7.198282
O 4.017093 8.392806 4.663489
O 3.685930 9.264490 10.205186
O 3.099416 7.149810 6.711983
O 5.400840 4.555626 3.437447
O 6.118311 10.345249 7.174563
O 1.185560 0.888909 2.190178
O 2.317972 7.841524 8.454032
O 4.762702 3.688293 5.456232
O 5.895114 10.640909 11.720086
O 5.564560 6.208480 5.958975
