32

Li 0.000000 4.283698 0.000000
Li 0.000000 0.000000 0.000000
O 1.128821 6.425547 6.535213
O 3.528320 2.141849 1.212967
O 1.319913 3.421989 1.071792
O 3.337228 7.705688 6.676389
O 3.337228 5.145407 6.676389
O 1.319913 0.861709 1.071792
O 2.099490 6.425547 -0.342905
O 2.557650 2.141849 8.091085
O 3.613424 0.854075 3.692751
O 1.043716 5.137773 4.055429
O 1.043716 7.713321 4.055429
O 3.613424 3.429623 3.692751
O 1.410029 2.141849 3.646307
O 3.247112 6.425547 4.101874
O 2.628071 2.141849 5.702306
O 2.029070 6.425547 2.045874
O 0.738203 0.851599 7.117870
O 3.918937 5.135297 0.630311
O 3.918937 7.715797 0.630311
O 0.738203 3.432099 7.117870
P 2.526145 6.425547 7.016600
P 2.130996 2.141849 0.731580
P 3.128076 6.425547 0.762213
P 1.529065 2.141849 6.985967
P 1.838653 6.425547 3.658065
P 2.818488 2.141849 4.090116
Co 0.171550 3.685300 2.974871
Co 4.485590 7.968998 4.773309
Co 4.485590 4.882096 4.773309
Co 0.171550 0.598398 2.974871
