40

Fe 1.991457 4.019176 5.843408
Fe 5.421483 8.099707 4.273518
Fe 5.421483 4.141886 -0.229410
Fe 1.991457 0.061355 1.340480
P 6.883434 6.037546 1.825276
P 5.030013 2.419306 6.234259
P 0.529506 2.123517 3.788723
P 2.382927 5.741756 -0.620260
P 2.382927 6.499837 3.882668
P 0.529506 1.957015 8.291651
P 6.883434 6.204048 -2.677652
P 5.030013 1.661225 1.731331
O 4.011023 0.667330 1.254512
O 5.978395 5.270626 -1.772724
O 2.630882 5.052954 4.242346
O 2.630882 7.188639 -0.260582
O 2.374491 6.646638 2.457785
O 2.374491 5.594955 6.960713
O 5.978395 6.970967 2.730204
O 0.818567 5.316687 0.091339
O 6.038107 6.581554 5.268128
O 0.022787 7.415361 1.371864
O 5.038449 2.566107 -1.346714
O 1.434545 1.190095 2.883795
O 1.434545 2.890436 7.386723
O 3.401917 4.747861 -0.143442
O 5.038449 1.514424 3.156214
O 4.011023 3.413201 5.757440
O 6.594374 1.236156 1.019731
O 4.782058 3.108108 1.371653
O 3.401917 7.493732 4.359486
O 0.022787 4.826232 5.874792
O 4.782058 0.972423 5.874581
O 1.374834 1.579508 0.345871
O 7.390153 3.334830 -0.260794
O 1.374834 2.501023 4.848799
O 6.038107 5.660039 0.765200
O 7.390153 0.745701 4.242134
O 0.818567 6.924906 4.594267
O 6.594374 2.844375 5.522659
