32

Cr 6.386595 2.495409 -0.854636
Cr 2.650901 0.021310 3.551140
Cr 0.835489 2.289309 8.135442
Cr 4.569355 4.765692 3.731304
P 6.930533 4.593239 1.287223
P 2.351297 3.071030 2.547897
P 3.288043 3.692007 6.466474
P 3.933571 1.094292 0.814708
P 0.290431 0.192484 5.994424
P 4.870468 1.715079 4.734063
O 0.382544 1.596030 6.603858
O 2.695697 1.161045 0.019908
O 6.840168 3.189332 0.677701
O 1.790819 3.761646 7.175699
O 1.081983 3.328591 1.728466
O 6.319654 -1.747576 2.272267
O 2.041387 1.978477 3.503714
O 3.498156 2.318417 5.660721
O 6.139415 1.455168 5.553710
O 3.813599 -0.084025 1.778667
O 5.432197 1.024193 0.107399
O 5.434335 4.945644 2.061797
O 1.786788 -0.158296 5.219740
O 3.405443 4.870725 5.502605
O 7.112101 -1.224975 -1.827631
O 0.900415 6.535302 5.010506
O 3.723530 2.467785 1.620850
O 2.737698 4.390437 3.059105
O 4.528192 3.625623 7.258846
O 4.484017 0.397027 4.220799
O 5.181463 2.809490 3.780325
O 0.110683 6.009308 9.108054
