14

Li 0.719616 0.983008 1.155100
Li 5.037270 6.881033 8.085685
O 4.242325 5.795124 4.705466
O 4.242325 5.795124 6.809660
O 1.514560 2.068923 4.535312
O 1.514560 4.300758 3.175068
O 1.514560 2.068923 2.431123
O 4.091656 3.357471 3.719671
O 4.242331 3.563286 6.065721
O 1.665229 4.506576 5.521117
Fe 2.878434 3.932024 4.620389
Fe 2.878446 1.439223 3.789459
Fe 0.000006 2.492810 3.181175
Fe 2.878434 3.932024 2.270153
