52

Li 2.432260 4.986959 6.247079
Li 6.882890 1.047751 9.443564
Li 2.408702 6.775422 2.095906
Li 6.906448 2.836214 5.469124
Li 7.037698 6.779456 7.979824
Li 2.277452 2.840248 7.710819
Co 7.073357 5.092916 3.816381
Co 2.437747 7.808929 7.118907
Co 2.241793 1.153707 3.748649
Co 6.877403 3.869721 8.571735
Co 6.992678 0.045711 4.694053
Co 2.322472 3.984919 2.870977
P 0.645046 2.514877 5.245401
P 8.670104 6.454085 10.445241
P 5.434924 2.440993 2.960421
P 8.570860 5.484158 6.307891
P 3.938585 5.360648 8.704015
P 5.376565 1.421440 6.986627
P 0.744290 1.544950 1.257139
P 3.880226 6.380202 4.604609
O 8.237462 5.001959 7.634850
O 5.686629 2.783657 9.728896
O 8.029221 7.378216 9.512636
O 3.260004 7.417647 3.683339
O 6.055146 3.478439 3.881691
O 5.677025 1.064508 5.608395
O 5.593319 6.382738 4.402310
O 0.942013 5.465872 2.662623
O 7.957215 5.002463 10.390977
O 8.202269 6.733990 3.721365
O 7.910491 6.908040 6.156623
O 1.444640 0.585366 2.216937
O 3.207486 4.981066 4.364265
O 6.107664 1.041858 3.200765
O 3.628521 6.722865 5.961746
O 1.026362 6.367817 6.915364
O 3.721831 2.443530 3.162720
O 1.077688 1.062751 8.055793
O 1.404659 2.968832 1.408407
O 6.008411 0.480962 7.923181
O 8.373137 1.526664 4.902406
O 3.659028 1.450929 7.080233
O 1.357935 1.063255 5.299666
O 1.112881 2.794782 3.843665
O 7.870510 4.524575 5.348093
O 3.379676 6.820140 8.572839
O 5.935474 2.880932 7.117804
O 3.638125 5.003716 1.956635
O 8.288788 2.428609 8.775278
O 3.306739 4.420170 7.767462
O 1.285929 3.439008 6.178007
O 5.656122 5.390137 8.610409
