28

Li 0.000000 0.000000 0.000000
Li 2.386154 0.000000 5.135634
Li 0.000000 3.176046 0.000000
Li 2.386154 3.176046 5.135634
O 3.753568 3.515229 3.472890
O 1.018717 2.836875 6.798368
O 3.404871 3.515229 8.608535
O 3.753568 6.012921 3.472890
O 1.367438 0.339183 1.662733
O 3.547568 1.588026 1.045245
O 1.367438 2.836875 1.662733
O 1.018717 0.339183 6.798368
O 1.224718 4.764078 9.226033
O 3.610867 1.588026 6.180869
O 3.855223 4.764078 5.631069
O 1.161427 4.764078 4.090399
O 3.303217 4.764078 0.495435
O 1.469068 1.588026 9.775834
O 0.917062 1.588026 4.640189
O 3.404871 6.012921 8.608535
P 2.775168 4.764078 9.295621
P 4.383267 4.764078 4.159997
P 1.997127 1.588026 0.975627
P 0.389018 1.588026 6.111281
Cr 0.241731 4.764078 7.334456
Cr 2.144400 4.764078 2.198832
Cr 4.530554 1.588026 2.936802
Cr 2.627885 1.588026 8.072446
