56

Li 1.797456 7.373420 0.377471
Li 3.524837 8.797843 1.951844
Li 6.205575 1.123119 4.126291
Li 8.028063 2.783731 5.585400
Li 8.634427 6.081532 0.916892
Li 9.596210 0.271057 6.266442
O 0.058685 7.513722 6.138962
O 0.796472 9.795848 3.928037
O 0.306353 3.387228 2.702027
O 0.743570 5.416891 4.756368
O 0.489219 1.577057 4.381183
O 1.649144 8.145990 2.127476
O 1.654496 4.818253 1.256045
O 1.692074 0.410915 6.551876
O 2.494329 2.161374 1.657310
O 3.327488 8.455589 -0.167412
O 3.732745 9.282058 4.030958
O 2.773438 -0.244379 2.192130
O 3.251678 3.694798 5.852537
O 3.492427 4.256980 3.366803
O 4.273339 5.655609 1.133909
O 4.651881 7.019601 4.744573
O 4.163690 0.767912 0.319175
O 4.455432 2.079393 4.240612
O 5.299659 7.842896 1.846370
O 5.651437 9.167883 5.726303
O 5.171006 2.892789 1.359309
O 5.527001 4.251127 4.961286
O 6.341058 5.698199 2.728248
O 6.967386 10.067895 3.761848
O 6.595302 6.213461 0.299384
O 6.066177 0.606255 2.014399
O 6.495526 1.496546 6.230558
O 7.384650 7.720749 4.561166
O 8.090702 9.741736 5.998673
O 8.083675 4.957555 4.840432
O 8.066629 1.722887 3.939859
O 9.055048 8.059584 1.834184
O 9.005111 4.291917 1.384089
O 9.549708 6.395277 3.496068
O 8.959706 0.083044 2.115649
O 9.584506 2.154376 0.101157
P 0.450702 8.689276 2.870290
P 0.153636 4.236433 1.341830
P 2.742300 0.737248 1.058222
P 4.227522 8.482660 5.215604
P 4.160744 3.516602 4.580890
P 5.605415 6.405787 1.533016
P 5.591891 1.446708 0.843811
P 7.079706 9.193518 4.985906
P 9.638964 5.483695 4.811837
P 9.282489 1.139596 3.261755
Sb 2.252778 0.231084 4.381153
Sb 3.411312 3.900732 1.340777
Sb 6.386464 5.991511 4.755426
Sb 7.475168 9.657768 1.640665
