44

Li 1.500988 7.301862 4.288215
Li 5.311164 0.891081 1.847552
Li 5.311157 3.205399 6.335703
Li 1.500988 4.987552 -0.199925
O 2.689346 0.719897 4.568482
O 6.322965 5.512318 0.886378
O 5.823996 7.690789 -1.022969
O 6.180980 4.803195 -1.458220
O 0.631166 3.389748 7.593998
O 0.988156 0.502162 7.158754
O 0.489173 2.680633 5.249403
O 1.562761 4.966537 5.768686
O 0.631173 0.706715 3.105865
O 0.988156 3.594318 2.670605
O 0.489180 1.415847 0.761270
O 2.689340 3.376582 0.080345
O 3.499106 1.911602 6.535922
O 1.562767 7.322885 1.280553
O 3.589367 7.550387 6.276455
O 6.180980 7.486219 3.029919
O 3.313032 6.008082 4.087990
O 4.122813 4.816361 6.055430
O 5.249378 3.226405 0.367095
O 3.499113 2.184869 2.047789
O 3.589374 4.739027 1.788313
O 3.222771 0.642564 -0.140674
O 5.249385 0.870066 4.855232
O 3.313032 6.281341 -0.400150
O 4.122806 7.473053 1.567294
O 6.322972 6.777104 5.374515
O 5.823989 4.598625 3.465164
O 3.222778 3.453907 4.347472
P 3.664246 0.706371 5.614164
P 3.147899 7.486572 0.521615
P 3.664246 3.390100 1.126015
P 6.436054 7.923329 4.400436
P 0.376085 3.826858 6.223485
P 0.376085 0.269605 1.735336
P 3.147906 4.802851 5.009751
P 6.436054 4.366085 -0.087704
Fe 4.899431 6.354225 -2.003458
Fe 4.899424 5.935181 2.484675
Fe 1.912714 2.257754 3.651106
Fe 1.912721 1.838709 8.139243
