14

Li 0.746325 1.108953 1.257204
Li 5.521190 7.648444 9.099443
O 1.578088 2.246782 4.996270
O 4.664413 6.397604 7.676721
O 4.689446 6.510612 5.360393
O 1.587922 4.789496 3.567694
O 1.603121 2.359786 2.679945
O 1.804816 4.952113 6.236175
O 4.679612 3.967893 6.788972
O 4.462712 3.805273 4.120488
Mo 3.133764 4.378693 5.178329
Mo 3.133764 7.171330 6.189964
Mo 0.000013 2.792632 3.590078
Mo 3.133758 4.378690 2.599891
