36

Li 1.587666 6.122403 9.943272
Li 5.728626 -1.708348 5.052127
O 4.214379 3.961911 12.309238
O 7.020289 -0.001439 11.784824
O 0.296010 4.415492 3.210579
O 0.824840 5.284463 7.564948
O 1.420342 4.164275 5.469271
O 3.671414 4.603672 7.610196
O 2.171368 4.086275 10.233540
O 0.895157 1.883867 1.891649
O 1.557750 2.963535 7.111788
O 5.525416 4.387950 5.908152
O 3.556841 2.010250 10.346914
O 3.759451 2.403805 4.648485
O 5.078785 3.858005 10.328412
O 0.232373 0.806956 6.335981
O 5.895957 0.249777 9.526131
O 2.237515 0.556048 4.666990
O 6.491453 -0.870408 7.430460
O 3.101928 0.452139 2.686177
O 1.790891 0.026100 9.087254
O 5.758542 1.450520 7.883620
O 6.421143 2.530185 13.103753
O 5.144932 0.327777 4.761872
O 3.644893 -0.189622 7.385201
O 7.083934 3.607087 8.659422
P 2.179021 1.051864 10.299334
P 5.353922 0.049881 7.948466
P 7.307834 2.226223 8.023743
P 1.962371 4.364174 7.046933
P 5.137279 3.362189 4.696068
P 3.756627 3.526722 10.750305
P 3.559672 0.887330 4.245098
P 0.008458 2.187832 6.971665
Fe 7.316299 -2.471986 7.930663
Fe 0.000000 3.443012 10.133734
