11

Li 3.950972 4.710972 0.124348
O 0.672439 2.526574 3.598028
O 0.385138 4.282930 1.918020
O 1.831209 4.737659 4.025690
O 2.774450 3.308130 2.299563
O 4.447137 2.748374 0.596391
O 2.438907 1.183273 0.924372
O 4.301259 1.304943 2.653946
P 1.332952 3.722076 3.002739
P 3.517208 2.061055 1.574385
Fe 0.659760 0.786660 0.020763
