18

V 3.256147 8.788289 0.833587
V 3.255332 3.629381 4.312877
Si 0.631059 5.668584 0.445556
Si 5.880217 6.748642 4.696752
Si 5.885846 7.843321 1.962758
Si 0.623636 4.571499 3.179877
O 5.118172 7.011692 3.296935
O 1.461718 7.136720 0.322281
O 1.766798 2.806537 0.806713
O 1.388251 5.397903 1.845391
O 5.053844 5.280572 4.823317
O 4.741099 9.609138 4.337212
O 5.045997 8.626159 1.667938
O 4.747329 10.523499 1.643586
O 5.124578 6.954786 0.775912
O 1.386040 5.460045 4.365628
O 1.764209 1.895915 3.498815
O 1.459539 3.786884 3.478237
