56

Li 0.551899 9.016326 -0.247170
Li 8.894682 0.346284 6.217068
Li 7.373178 2.657624 5.366377
Li 6.855455 3.378406 2.684835
Li 2.592250 5.984785 3.285351
Li 2.073177 6.703820 0.605815
O 2.246686 0.134683 2.328799
O 8.911751 6.151816 3.339548
O 8.704811 0.060623 1.982728
O 9.238470 2.244411 -0.020871
O 0.208716 7.116948 5.992666
O 0.740901 9.301001 3.989098
O 0.534594 3.209472 2.632183
O 0.471691 1.514617 4.397361
O 0.967290 5.412653 4.417909
O 1.634822 7.565236 2.294742
O 1.593287 4.855518 1.231879
O 1.703648 0.195986 6.328754
O 2.374589 2.284735 1.101785
O 3.039523 8.046172 6.122682
O 5.372869 8.847019 5.435034
O 3.444419 9.213574 3.955873
O 3.401212 3.990176 5.816086
O 3.261123 4.018849 3.286099
O 4.036994 5.817469 1.493059
O 8.480103 3.949497 1.555517
O 4.345236 6.781944 4.350443
O 4.073551 0.514407 0.537596
O 8.973530 7.847043 1.574622
O 5.101298 2.580097 1.621578
O 5.977838 7.567013 1.514211
O 5.409039 3.545058 4.479500
O 6.185080 5.343428 2.686277
O 6.045058 5.372616 0.156351
O 6.001463 0.148155 2.016701
O 7.199045 9.227711 3.643029
O 6.407172 1.315003 -0.150263
O 7.072342 7.077364 4.869935
O 7.742868 9.166078 -0.357017
O 7.852917 4.506185 4.740521
O 7.810947 1.796903 3.676511
O 3.468110 1.795378 4.458297
P 5.586667 6.100337 1.456246
P 5.480500 1.183307 1.020649
P 6.873592 8.586242 4.952707
P 9.217008 5.213406 4.593898
P 0.426764 8.310044 2.829347
P 0.229195 4.148223 1.377839
P 2.572678 0.775870 1.019182
P 3.965864 8.178565 4.951678
P 3.859376 3.262021 4.516240
P 9.019118 1.051894 3.142181
Cr 7.340890 9.090904 1.661495
Cr 6.050168 5.506378 4.660347
Cr 3.396007 3.855902 1.311875
Cr 2.104661 0.270947 4.309610
