44

Li 1.646549 7.697519 4.656883
Li 1.646549 5.127889 0.067662
Li 5.296484 3.422383 6.453846
Li 5.296484 0.852753 1.864624
O 1.530788 7.700708 1.404990
O 5.939868 8.119107 -0.767495
O 6.422708 5.735753 1.072284
O 5.412260 3.425572 0.527310
O 0.586041 3.514658 7.809685
O 1.003165 0.431165 7.289002
O 0.520339 2.814519 5.449227
O 1.530788 5.124699 5.994192
O 0.586041 0.760470 3.220473
O 1.003165 3.843971 2.699790
O 0.520339 1.460617 0.860006
O 6.357006 5.035606 -1.288183
O 2.874335 0.760213 4.741602
O 3.671743 1.991888 6.706628
O 3.652067 7.977959 6.537106
O 3.290966 3.702823 4.573605
O 3.271304 6.267024 4.404096
O 4.068712 5.035349 6.369112
O 6.357006 7.789811 3.301029
O 3.671737 2.283247 2.117418
O 3.652074 4.847448 1.947900
O 3.290966 0.572312 -0.015598
O 3.271304 6.558383 -0.185126
O 4.068712 7.790058 1.779910
O 5.412260 0.849564 5.116522
O 6.422708 7.089654 5.661496
O 5.939868 4.706300 3.821717
O 2.874335 3.514923 0.152390
P 6.578940 4.584835 0.100852
P 6.578940 8.240572 4.690073
P 3.826150 3.528176 1.234593
P 3.116883 7.803320 0.697703
P 0.364100 3.965436 6.420653
P 0.364100 0.309699 1.831432
P 3.826150 0.746960 5.823795
P 3.116890 5.022096 5.286912
Mo 1.966505 1.899024 8.354982
Mo 1.966505 2.376112 3.765770
Mo 4.976528 6.174151 2.755738
Mo 4.976528 6.651248 -1.833474
