38

O 7.940620 -3.813289 11.320218
O 9.069223 -3.652936 9.701825
O 9.072122 0.819842 13.985044
O 9.057362 -4.372734 6.909087
O 7.941170 0.658223 11.725776
O 5.593446 -1.912732 9.717979
O 6.928273 -2.580420 7.534543
O 8.219879 -2.650932 5.886537
O 9.059877 0.099450 8.274654
O 3.219238 -0.150255 10.114334
O 5.447955 0.039582 9.177153
O 8.212411 1.823705 9.927637
O 2.999227 -1.342435 7.926993
O 6.930415 1.889463 7.698939
O 1.595748 0.660730 6.664822
O 5.598026 2.557543 5.272894
O 5.453340 4.509758 6.922853
O 3.004691 3.127352 6.158748
O 0.051416 2.739403 6.903635
O 1.597202 5.133659 7.946066
O 3.223739 4.320685 4.798084
O 0.575008 2.477282 3.103704
O 0.050571 7.211899 8.217110
O 0.574438 6.950374 4.048884
P 9.568326 -3.473324 11.095740
P 9.569456 0.998775 12.938948
P 8.638812 -3.008092 7.096167
P 4.328766 -0.852453 9.235764
P 8.637947 1.464628 8.706113
P 4.333513 3.617971 5.786624
Sn 6.100745 1.625869 10.499771
Sn 6.103379 -2.848416 4.179836
Sn 2.663285 -1.127321 6.219508
Sn 6.239210 0.925367 5.814159
Sn 6.236498 5.399307 11.195380
Sn 2.664798 3.345954 7.834164
Sn 1.513937 -0.550976 2.822121
Sn 1.516914 3.918284 2.960282
