44

Li 4.691054 4.633342 5.130520
Li 1.556804 3.557340 4.320707
Cu 3.115200 7.069623 1.756288
Cu 1.604681 4.665967 0.774096
Cu 6.219829 7.035223 1.749343
Cu 0.028028 1.155459 7.701884
Cu 3.132657 1.121059 7.694939
Cu 4.678589 1.786708 4.387312
Cu 4.643176 3.524722 8.677130
Cu 1.569268 6.403973 5.063915
Cu 1.592860 7.027846 8.755635
Cu 4.654997 1.162836 0.695592
P 1.578977 3.995989 7.403968
P 1.560596 1.074821 4.962623
P 4.681601 6.899475 8.397834
P 1.566257 1.291206 1.053392
P 4.668880 4.194693 2.047259
P 4.687261 7.115861 4.488604
O 4.732202 1.610625 8.638021
O 3.393599 7.401375 7.655277
O 4.738444 5.386173 8.405986
O 4.657228 7.450660 -0.036417
O 4.677752 3.138018 0.913828
O 5.951528 5.082705 1.885154
O 1.570105 5.052664 8.537399
O 1.558665 0.748025 6.519829
O 4.689192 7.442657 2.931398
O 0.363607 1.988896 4.583357
O 0.281528 0.752755 1.790822
O 1.573123 7.944781 3.856375
O 3.491453 6.198433 4.860550
O 1.515655 6.580057 0.813206
O 3.374518 5.068913 1.909151
O 1.558134 4.635550 5.981966
O 5.884251 6.201785 4.867869
O 4.674734 0.245900 5.594851
O 1.509414 2.804508 1.045241
O 0.296330 3.107977 7.566072
O 5.966329 7.437926 7.660405
O 4.689723 3.555131 3.469260
O 2.873340 3.121769 7.542076
O 1.590629 0.740021 9.487643
O 2.854265 0.789306 1.795950
O 2.756405 1.992248 4.590677
