80

Li 3.732413 9.740555 5.095311
Li 1.820712 2.137542 6.820747
Li 2.593713 3.879866 2.425001
Li 3.658604 8.985896 1.769279
Li 7.008137 9.897274 1.970745
Li 8.146837 3.534821 8.091926
Li 0.682011 8.499996 0.699565
Li 0.755820 9.254655 6.165025
Li 5.096435 2.294261 3.696180
Li 5.170244 3.048920 7.022213
Li 8.073028 2.780161 2.626467
Li 6.235136 8.154950 6.366490
Ti 2.248602 4.743850 8.441071
Ti 6.580246 7.290967 0.350420
Ti 6.574640 1.177376 8.561418
Ti 2.254208 10.857441 0.230073
Ti 6.663026 10.761258 4.746166
Ti 6.668632 4.651706 4.165672
Ti 2.165822 1.273558 4.045326
Ti 2.160216 7.383111 4.625819
P 5.329464 4.166227 1.026354
P 0.318898 6.007827 2.167780
P 4.095526 0.009581 6.563525
P 8.509950 6.026989 6.623712
P 3.491421 4.207475 5.304056
P 0.915039 10.371962 3.369392
P 7.913809 1.662854 5.422100
P 0.923003 1.809933 0.908311
P 5.337427 7.827341 3.487435
P 7.905845 10.224884 7.883181
P 4.733322 12.025236 2.227966
P 3.499385 7.868589 7.765138
O 0.603249 2.032981 5.221179
O 8.206741 4.751799 2.753979
O 3.775763 7.882324 3.422387
O 1.307967 11.847837 3.610841
O 3.792317 10.957534 1.641767
O 5.892823 6.473503 3.898385
O 4.015281 0.744094 3.221835
O 2.906227 0.749771 5.888066
O 7.920986 5.114688 5.518393
O 1.478399 0.456095 0.497361
O 3.106457 6.392714 8.006587
O 5.017673 8.050389 7.966058
O 0.622107 7.283017 6.037513
O 7.520881 0.186980 5.180650
O 7.123909 2.518395 4.372369
O 8.190187 1.676589 0.973359
O 1.704939 9.516422 4.419122
O 1.312973 2.876554 8.618580
O 8.225599 10.001836 3.570313
O 7.515875 9.158262 0.172911
O 0.399143 5.273314 7.617581
O 6.119363 3.310687 8.768115
O 2.936025 5.561314 4.893107
O 5.322286 0.714394 1.122647
O 7.320651 6.767179 7.299171
O 0.638661 10.358227 7.818133
O 5.722391 5.642102 0.784904
O 1.260539 9.957293 1.909257
O 7.568309 2.077524 6.882234
O 3.811175 3.984427 0.825433
O 5.922621 11.285045 2.903425
O 5.727397 8.893962 4.568657
O 5.036531 1.077283 7.149724
O 4.813567 11.290722 5.569656
O 5.674963 3.751558 2.486489
O 7.350449 11.578722 8.294130
O 3.153885 8.283259 6.305003
O 5.815562 8.290483 2.084586
O 3.101451 3.140854 4.222835
O 3.506562 11.320423 7.668844
O 0.907862 6.920128 3.273099
O 1.508197 5.267637 1.492321
O 2.709485 8.724129 0.023377
O 5.053085 4.152492 5.369104
O 7.427710 9.761742 6.480331
O 3.013286 3.744333 6.706906
O 8.429705 6.761503 1.173910
O 1.401138 2.273075 2.311160
