14

Li 1.627265 2.127445 4.703126
Li 3.325569 4.347755 1.567709
O 1.178880 3.627250 1.567709
O 3.773954 2.847951 4.703126
O 1.212995 1.585840 2.839284
O 3.739849 4.889365 5.974707
O 1.212995 1.585840 0.296134
O 3.438176 2.408960 1.567709
O 3.739849 4.889365 3.431545
O 1.514667 4.066245 4.703126
P 1.733082 2.265788 1.567709
P 3.219751 4.209413 4.703126
Co 0.000000 0.000000 3.135424
Co 0.000000 0.000000 0.000000
