70

O 10.132804 -1.365048 3.417817
O 10.294259 0.615876 -4.363848
O 9.914301 0.624257 -2.278914
O 7.067366 -0.739113 -2.677506
O 8.479076 -0.367065 0.082023
O 9.124011 0.511462 1.691359
O 7.513013 4.511024 -5.461784
O 8.589151 7.601952 -6.565700
O -0.007890 6.724430 4.208786
O 0.372068 6.716038 2.123848
O 3.218982 8.079413 2.522448
O 0.153544 8.705349 -3.572876
O 1.807272 7.707366 -0.237082
O 1.162359 6.828843 -1.846431
O 2.773336 2.829286 5.306720
O 1.697208 -0.261654 6.410638
O 3.240038 9.070108 -2.326032
O 3.415791 6.098164 1.266940
O 0.967658 0.412350 2.894249
O 0.737902 1.309143 0.787431
O 2.360966 3.822875 0.078150
O 2.889665 1.001706 4.015660
O 1.411309 4.748466 -3.153507
O 3.834662 6.680400 -1.399259
O 3.007855 7.619752 -4.202539
O 5.830205 5.804736 2.049484
O 6.169542 7.314426 0.000132
O 3.746323 1.630733 1.810534
O 5.276151 4.695474 0.464960
O 4.570085 -0.769790 5.476777
O 6.030964 2.036691 4.347435
O 3.750365 4.302432 -2.351678
O 6.536004 3.037874 2.196607
O 4.255395 5.303607 -4.502498
O 5.716274 8.110088 -5.631849
O 5.010218 2.644831 -0.620022
O 6.540046 5.709562 -1.965600
O 4.116817 0.025872 -0.155185
O 4.456143 1.535574 -2.204548
O 7.278504 -0.279455 4.047467
O 6.451697 0.659888 1.244193
O 8.875040 2.591844 2.998442
O 7.396684 6.338595 -4.170727
O 7.925403 3.517420 -0.233216
O 9.548467 6.031162 -0.942502
O 7.046320 -1.729810 2.170970
O 6.870568 1.242134 -1.422003
O 9.318701 6.927937 -3.049315
P 3.067793 4.304397 -3.394930
P 7.218576 3.035908 3.239858
P 6.313386 -1.025683 5.279994
P 7.482153 6.751685 -3.102473
P 3.972983 8.365989 -5.435056
P 5.157611 1.427166 -1.175317
P 9.614063 4.310202 -0.511507
P 7.816532 -0.137205 1.235703
P 0.005421 9.914663 1.521416
P 2.469827 7.477503 -1.390757
P 0.672286 3.030109 0.356443
P 5.128737 5.913124 1.020263
P 2.804205 0.588613 2.947420
P 10.280948 -2.574368 -1.676482
Fe 7.823393 -0.417864 -1.343015
Fe 9.499463 0.574691 3.180884
Fe 6.444548 6.122361 -5.458554
Fe 5.915119 2.602332 0.890176
Fe 4.371229 4.737969 -1.045235
Fe 3.841811 1.217937 5.303492
Fe 0.786896 6.765617 -3.335952
Fe 2.462966 7.758161 1.187943
