46

Li 5.915432 0.165896 3.026148
Li 12.126342 9.688315 0.191121
O 0.300099 1.627610 0.995629
O 0.265268 1.741170 3.578987
O 0.684529 4.543126 4.311553
O 1.588440 3.425974 2.190017
O 2.093313 9.059104 0.670424
O 2.146118 5.844138 2.653212
O 2.372692 1.061643 2.419412
O 3.121119 3.920931 4.069996
O 3.810530 0.996773 0.330585
O 4.023440 5.803982 0.038979
O 4.176464 9.199714 2.258118
O 4.584881 3.377610 0.457249
O 5.561373 4.547708 3.955241
O 5.862056 1.655123 4.615865
O 5.919978 1.642253 1.675426
O 6.511009 8.226601 3.706936
O 6.476178 8.113041 0.743959
O 6.895439 5.311084 1.476525
O 7.799350 6.428237 4.901325
O 8.304223 0.795107 3.381731
O 8.357028 4.010072 5.364519
O 8.583602 8.792567 5.130719
O 9.332029 5.933279 1.234968
O 10.021440 8.857438 3.041892
O 10.234350 4.050228 2.750286
O 10.387374 0.654497 4.969425
O 10.795791 6.476601 3.168556
O 11.772283 5.306502 1.120214
O 12.072965 8.199088 1.780838
O 12.130888 8.211957 4.386733
P 1.017856 1.917728 2.293920
P 1.824629 4.546615 3.332417
P 3.111952 0.015028 1.422300
P 4.384729 4.529340 4.887830
P 5.163987 1.870014 0.389878
P 7.228766 7.936483 5.005228
P 8.035539 5.307596 0.497390
P 9.322862 9.839183 4.133607
P 10.595638 5.324871 2.052802
P 11.374896 7.984197 3.101185
Sn 1.081580 6.790714 0.628382
Sn 5.202482 6.834427 2.076689
Sn 7.292490 3.063497 3.339689
Sn 11.413392 3.019783 4.787996
