98

Li 0.985074 2.496737 7.758878
Li 8.841346 10.926427 6.005902
Li 7.512198 11.412979 12.888373
Li 8.841464 7.277988 12.888351
Li 6.551091 8.948939 1.651803
Li 6.551061 8.948949 8.534205
Li 7.512159 6.613378 6.005955
Li 2.314261 2.010264 0.876420
Li 0.985054 6.145199 0.876387
Li 3.275477 4.474290 5.230546
Li 0.000020 8.510025 6.882384
Li 0.000010 0.000005 13.764831
Li 3.275624 4.474372 12.112976
Li 2.314350 6.809804 7.758838
Li 6.527035 4.116616 7.758829
Li 3.299325 8.155494 12.888399
Li 6.527134 5.267758 0.876394
Li 3.299355 9.306584 6.005922
O 7.731053 3.865487 3.441177
O 8.766910 9.717123 9.172831
O 7.343173 11.515671 9.027715
O 7.611406 12.300608 5.962510
O 9.057528 10.888101 2.145313
O 9.809047 11.496214 12.844898
O 9.826449 6.727860 3.441185
O 0.017462 1.927028 0.919813
O 0.768961 2.535148 11.619356
O 2.215053 1.122576 7.802255
O 2.483316 1.907552 4.737064
O 1.059568 3.706122 4.591907
O 1.855994 3.677398 9.124921
O 1.059647 4.945885 11.474261
O 0.017491 6.585409 7.802217
O 0.000069 6.695370 10.323567
O 0.768931 6.077927 4.737032
O 3.174677 3.194651 2.242739
O 3.667739 2.751415 11.474281
O 1.855955 5.081304 2.242539
O 3.275388 4.474195 0.200110
O 3.275811 4.474389 7.082539
O 3.174804 5.740652 9.125018
O 5.099210 3.467244 4.591872
O 4.795847 4.005201 9.125147
O 2.483414 6.935167 11.619384
O 2.095465 7.743021 3.441168
O 2.215092 7.684094 0.919804
O 2.232593 7.707949 5.962533
O 3.667710 6.249866 4.591833
O 4.795808 5.147321 2.242478
O 3.252276 7.985469 9.027798
O 5.099240 5.725906 11.474303
O 6.574252 3.952978 11.619405
O 2.095406 1.047681 10.323606
O 2.232407 9.611142 12.844924
O 7.593993 3.812055 0.919813
O 9.057577 7.345306 9.027761
O 3.252266 9.470252 2.145388
O 4.727318 7.697351 2.290503
O 6.574232 5.437747 4.736967
O 5.030720 8.275956 11.522329
O 6.158848 7.173383 9.172891
O 7.593925 5.715255 7.802233
O 7.611475 5.739084 12.844975
O 7.731043 5.680212 10.323583
O 7.343153 6.488088 2.145368
O 5.030661 9.418016 4.639783
O 4.727288 9.955984 9.172879
O 8.766861 8.477348 2.290518
O 6.551179 8.948991 13.564683
O 6.551110 8.949025 6.682240
O 7.970554 8.341904 11.522185
O 6.158769 10.671767 2.290498
O 6.651910 10.228579 11.522108
O 7.970485 9.745914 4.639624
O 9.809007 6.837811 5.962535
O 6.651753 7.682597 4.639885
P 6.710486 5.287421 11.617319
P 7.595359 6.496215 9.029875
P 6.551091 8.948845 12.049778
P 6.551022 8.948887 5.167321
P 8.941595 7.169324 2.147453
P 7.595320 11.541325 2.147432
P 0.884864 2.374663 4.734932
P 2.231139 1.881893 11.617306
P 0.884952 6.253946 11.617299
P 3.275496 4.474377 1.715029
P 3.275614 4.474410 8.597472
P 2.231208 6.927023 4.734877
P 3.116072 8.135786 2.147460
P 6.710466 4.121537 4.734882
P 3.116022 9.301653 9.029870
P 8.941635 11.048582 9.029834
Cr 4.261533 2.130766 3.441359
Cr 5.565024 6.473125 3.441223
Cr 4.261671 6.950185 10.323487
Cr 5.565024 11.292467 10.323530
Cr 0.000049 4.819477 3.441161
Cr 9.826548 8.603869 10.323535
