12

Mn 0.000000 0.000000 0.000000
Mn 0.000000 0.000000 3.267494
P 3.071567 3.975508 4.901241
P 1.639592 2.122112 1.633747
O 3.655030 2.620987 4.901241
O 1.129821 1.462319 2.923244
O 3.581338 4.635301 6.190738
O 1.391667 3.910917 4.901241
O 1.056129 3.476632 1.633747
O 3.581338 4.635301 3.611744
O 1.129821 1.462319 0.344250
O 3.319492 2.186703 1.633747
