11

O 2.455703 0.256289 4.316824
O 0.305461 3.705864 2.204106
O 0.341526 3.573681 4.356779
O 2.399097 2.533042 6.048288
O 2.747080 2.195180 3.241306
O 4.861257 -1.122212 3.201350
O 2.803686 -0.081573 1.509842
O 4.897323 -1.254395 5.354024
Ni 2.601392 -1.305085 -0.035162
W 1.375668 1.923690 4.675741
W 3.827115 0.527779 2.882389
