40

Li 0.000390 0.000513 9.410507
Li 4.869580 6.410928 15.863846
Li 3.285921 4.326000 14.352636
Li 3.274696 4.311217 8.053690
Li 1.595274 2.100215 17.220663
Li 1.584044 2.085439 10.921735
O 1.124382 3.570022 7.733225
O 3.726302 2.815659 11.202638
O 3.434275 2.369273 1.689169
O 3.783778 2.829398 4.770725
O 1.086187 3.582032 1.672453
O 1.435690 4.042157 4.754009
O 1.445776 3.993520 11.186403
O 1.143658 3.595778 14.071734
O 1.223647 1.610967 9.086226
O 1.465465 4.019070 17.524896
O 1.135364 1.494741 6.552152
O 3.745588 2.841410 17.541128
O 1.180226 1.553794 12.821720
O 1.218913 1.604726 0.313534
O 3.424189 2.417910 14.087969
O 1.216381 1.601392 15.363771
O 3.653589 4.810039 9.910582
O 3.646313 4.800461 16.188146
O 3.651052 4.806704 6.129625
O 3.707933 4.881580 3.593252
O 3.689739 4.857645 12.452633
O 3.734601 4.916698 18.722201
O 3.404510 2.392363 7.749457
O 1.162032 1.529854 2.849907
P 1.680839 2.212873 7.792750
P 1.707181 2.247552 14.108294
P 3.162774 4.163883 11.166059
P 3.173727 4.178298 4.805311
P 1.696233 2.233144 1.637847
P 3.189131 4.198573 17.481603
Cr 4.856972 6.394333 6.408650
Cr 0.000000 0.000004 12.554117
Cr 4.869960 1.948076 3.238923
Cr 0.012993 0.017101 0.034509
