68

O 7.843959 7.601628 5.392421
O 8.402772 3.586968 1.882151
O 8.320690 3.069300 7.175419
O 8.373617 1.465639 5.201714
O 8.358239 0.768071 10.685902
O 7.723272 6.395854 2.055947
O 7.675861 5.745275 7.031950
O 7.463973 8.268370 0.393643
O 0.537660 5.289073 10.631618
O 0.619733 5.806751 5.338349
O 0.566814 7.410412 7.312054
O 0.582192 8.107971 1.827866
O 1.096472 1.274404 7.121347
O 1.217159 2.480188 10.457834
O 1.264561 3.130766 5.481819
O 1.476450 0.607672 12.120125
O 1.579434 4.341068 2.977985
O 1.376370 1.990381 2.092390
O 1.579890 3.952732 0.508869
O 1.606837 0.063934 9.683884
O 2.863370 4.501955 9.078335
O 2.890325 8.390753 5.748027
O 3.093836 6.428402 4.164494
O 2.890781 8.779089 3.278899
O 2.993757 5.045701 6.642094
O 3.205654 7.568787 0.775066
O 3.253056 6.918209 8.304398
O 3.373743 5.712425 11.640872
O 3.903401 2.972382 11.450165
O 7.360988 4.534965 9.535784
O 3.932556 0.851053 8.130602
O 3.850474 1.368730 0.918535
O 5.089949 7.507312 11.595234
O 5.007875 8.024989 4.383179
O 5.052399 5.206091 8.084750
O 5.037030 5.903659 1.063603
O 5.566688 3.163608 0.872896
O 5.687375 1.957833 4.209383
O 5.734777 1.307255 11.738703
O 5.946674 3.830349 5.871687
O 6.049659 0.096953 9.234869
O 5.846586 2.447631 8.349275
O 6.050097 0.485289 6.765753
O 6.077053 4.374096 3.435420
O 7.333594 8.812116 2.829884
O 7.360541 4.923318 12.004899
O 7.564052 6.885651 10.421378
O 3.888024 3.669950 4.429018
P 3.510076 5.419028 8.053645
P 4.203505 6.647942 0.029251
P 4.736936 2.228099 12.484505
P 3.484256 7.914660 4.433889
P 5.430347 3.457023 4.460135
P 5.456184 0.961382 8.079879
P 7.954472 5.399412 10.690773
P 7.980301 7.895044 1.805182
P 0.266711 2.209921 6.227633
P 0.960140 0.981007 10.708574
P 0.985960 3.476639 1.822995
P 8.673720 6.666120 6.286147
Nb 6.714550 4.708101 1.472497
Nb 6.698994 4.143221 7.705716
Nb 6.696097 0.270080 4.792821
Nb 6.711653 8.581242 11.064936
Nb 2.228778 0.294809 1.448832
Nb 2.244334 8.605961 7.720948
Nb 2.241438 4.732830 4.808040
Nb 2.225881 4.167949 11.041272
