22

Li 8.324012 9.651291 0.212728
Li 3.949579 8.134072 -1.239783
Ni 4.386515 5.299906 3.861734
Ni 0.003628 3.777331 -0.791106
P 1.642655 5.838897 2.325794
P 7.101342 4.775209 0.726644
P 2.727687 3.238090 2.065668
P 6.016564 7.374017 1.050757
O 5.727633 4.334847 0.026938
O 7.381819 7.868039 0.369104
O 2.179558 4.534605 1.401674
O 3.243312 2.223013 1.023604
O 8.270728 5.236957 -0.186785
O 0.527357 5.391104 3.333062
O 3.903612 3.687228 2.981896
O 6.561973 6.063482 1.687780
O 4.879856 6.932206 0.053784
O 7.608243 3.739012 1.508439
O 1.360264 2.772850 2.753979
O 5.382009 8.311903 2.102313
O 3.015717 6.321469 3.021593
O 1.021660 6.791105 1.512597
