76

Li 0.084020 8.316121 0.903430
Li 9.350113 1.817667 8.527833
Li 9.350113 1.817667 5.619062
Li 4.801087 6.884561 3.812202
Li 4.801087 6.884561 0.903430
Li 0.084020 8.316121 3.812202
Li 4.633046 3.249227 5.619062
Li 4.633046 3.249227 8.527833
O 3.302777 9.920736 1.105287
O 8.320830 2.819524 0.588417
O 8.335311 0.501916 2.357816
O 8.473002 7.377226 2.357816
O 0.961131 2.756563 7.073448
O 1.098822 9.631872 7.073448
O 1.113303 7.314265 5.304048
O 1.113303 7.314265 8.842847
O 1.221786 1.178387 0.513146
O 1.221786 1.178387 4.202486
O 1.278485 3.487178 2.357816
O 1.414290 4.853841 5.820919
O 1.414290 4.853841 8.325976
O 1.364044 8.824280 2.357816
O 1.661228 5.698584 1.179342
O 1.661228 5.698584 3.536290
O 3.055838 0.631690 5.894973
O 3.055838 0.631690 8.251922
O 3.353023 3.757386 7.073448
O 8.320830 2.819524 4.127215
O 3.302777 9.920736 3.610344
O 3.438581 8.554073 7.073448
O 3.495280 6.245282 5.228777
O 3.495280 6.245282 8.918118
O 3.603763 2.247370 0.588417
O 3.603763 2.247370 4.127215
O 3.618245 4.564978 2.357816
O 3.755936 7.823457 2.357816
O 5.678197 2.310332 7.073448
O 5.815888 5.568811 7.073448
O 5.830370 7.886418 5.304048
O 5.830370 7.886418 8.842847
O 5.938853 3.888507 0.513146
O 5.938853 3.888507 4.202486
O 5.995552 1.579716 2.357816
O 6.131356 0.213053 5.820919
O 6.131356 0.213053 8.325976
O 6.081110 6.376403 2.357816
O 6.378295 9.502099 1.179342
O 6.378295 9.502099 3.536290
O 7.772905 4.435205 5.894973
O 7.772905 4.435205 8.251922
O 8.070089 1.309508 7.073448
O 8.019843 5.279947 1.105287
O 8.212347 8.955401 8.918118
O 8.155648 6.646610 7.073448
O 8.212347 8.955401 5.228777
O 8.019843 5.279947 3.610344
P 7.326321 5.411747 7.073448
P 6.824878 0.344853 2.357816
P 7.425163 4.006677 0.323973
P 7.425163 4.006677 4.391658
P 1.870034 3.944577 7.073448
P 2.008970 6.127111 5.039605
P 2.008970 6.127111 9.107290
P 2.107812 4.722041 2.357816
P 2.609255 9.788936 7.073448
P 2.708096 1.060217 0.323973
P 2.708096 1.060217 4.391658
P 2.847033 9.011471 2.357816
P 6.587100 1.122317 7.073448
P 6.726037 9.073571 5.039605
P 6.726037 9.073571 9.107290
P 7.564099 6.189211 2.357816
Cu 9.456567 8.041293 7.073448
Cu 4.694632 2.974399 2.357816
Cu 4.739501 7.159390 7.073448
Cu -0.022434 2.092496 2.357816
