52

Li 0.492500 1.731157 5.622750
Li 3.647987 1.823994 7.782425
Li 4.940198 3.955006 0.434467
Li 2.815525 1.407763 2.594142
Li 5.971012 10.811412 4.935671
Li 1.523314 8.587563 10.123955
Ni 4.111020 8.451964 7.925133
Ni 2.087889 3.958304 7.821572
Ni 4.375623 8.584266 2.736849
Ni 2.352492 4.090605 2.633289
Ni 3.231756 6.271285 5.279211
Ni 0.000000 4.655407 0.090927
P 1.397476 6.327171 2.668804
P 2.671421 9.158135 5.279151
P 1.158811 6.207839 7.857087
P 4.825322 10.235085 10.467434
P 3.792091 3.384435 5.279271
P 5.304702 6.334731 2.701334
P 5.066036 6.215398 7.889618
P 1.638190 2.307484 0.090987
O 3.740629 9.587331 9.374746
O 2.131628 7.676622 5.243688
O 4.983549 7.236612 9.042992
O 2.634224 2.910909 6.371959
O 2.016622 5.516458 3.788044
O 4.147138 4.907911 8.250751
O 1.233186 0.859159 0.407867
O 2.386167 2.585497 9.089353
O 4.649638 7.069656 3.854709
O 4.444654 5.019845 2.275225
O 2.316374 7.634659 2.307671
O 4.446890 7.026112 6.770377
O 1.479963 5.305958 1.515429
O 4.077345 9.957073 1.469069
O 5.230326 11.683411 10.150554
O 5.146152 7.375742 1.582094
O 4.331885 4.865948 5.314734
O 1.401567 9.769032 4.962271
O 3.352773 9.594786 6.657352
O 3.829289 9.631661 4.186463
O 5.061945 2.773538 5.596151
O 3.110740 2.947783 3.901069
O 6.114728 9.533836 7.495954
O 1.317361 5.166827 8.976328
O 2.018859 7.522725 8.283196
O 0.257293 2.828652 0.126450
O 1.813875 5.472914 6.703713
O 6.206219 9.713918 10.431971
O 0.348784 3.008734 3.062467
O 0.076838 2.835937 7.463509
O 6.386674 9.706633 3.094913
O 2.722884 2.955239 1.183675
