56

Li 0.085425 -0.040576 3.259885
Li 0.085425 6.053691 9.779654
Li 5.018838 5.972538 3.259885
Li 5.018838 12.066806 9.779654
O 1.561277 5.985659 11.688486
O 4.604443 4.134365 7.160506
O 4.604443 1.878750 5.879033
O 4.604443 1.878750 0.640724
O 0.499830 7.891877 0.640724
O 0.499830 7.891877 5.879033
O 0.499830 10.147468 7.160506
O 0.499830 10.147468 12.398815
O 1.079649 0.682549 8.262217
O 1.079649 0.682549 11.297092
O 1.079649 5.330566 1.742448
O 1.079649 5.330566 4.777322
O 1.561277 0.027444 1.351053
O 1.561277 0.027444 5.168717
O 1.561277 5.985659 7.870822
O 4.604443 4.134365 12.398815
O 2.134649 7.478090 9.779654
O 2.134649 10.561255 3.259885
O 2.330836 8.437663 7.572986
O 2.330836 8.437663 11.986323
O 2.330836 9.601682 1.053217
O 2.330836 9.601682 5.466553
O 2.773427 2.424548 7.572986
O 2.773427 2.424548 11.986323
O 4.024614 11.343681 4.777322
O 2.773427 3.588567 5.466553
O 2.969614 1.464975 9.779654
O 2.969614 4.548140 3.259885
O 3.542986 6.040559 1.351053
O 3.542986 6.040559 5.168717
O 3.542986 11.998774 7.870822
O 3.542986 11.998774 11.688486
O 4.024614 6.695664 8.262217
O 4.024614 6.695664 11.297092
O 4.024614 11.343681 1.742448
O 2.773427 3.588567 1.053217
P 3.861074 3.006557 6.519770
P 3.861074 3.006557 0.000000
P 2.556761 11.002016 4.753916
P 2.556761 11.002016 1.765867
P 1.243184 9.019672 0.000000
P 1.243184 9.019672 6.519770
P 2.547502 1.024214 8.285623
P 2.547502 1.024214 11.273673
P 2.556761 7.037329 11.273673
P 2.547502 4.988901 4.753916
P 2.556761 7.037329 8.285623
P 2.547502 4.988901 1.765867
Ni 0.000000 0.000000 0.000000
Ni 0.000000 0.000000 6.519770
Ni 0.000000 6.013115 0.000000
Ni 0.000000 6.013115 6.519770
