18

O 4.838420 0.417799 1.603495
O 4.869021 1.643453 4.041564
O 4.439429 2.150585 7.017589
O 4.023214 5.262361 3.876892
O 3.593622 4.755228 6.852917
O 3.624223 3.529575 1.329822
O 0.803342 5.805751 5.659493
O 0.772741 4.580098 3.221423
O 1.202333 4.072965 0.245398
O 1.618548 0.961190 3.386095
O 2.048140 1.468322 0.410071
O 2.017539 2.693976 5.933166
Mo 2.820881 3.111775 -0.349089
Mo 0.000000 0.000000 3.980582
La 5.454331 3.629643 5.340832
La 3.008312 0.517868 5.553649
La 2.633450 5.705683 1.709338
La 0.187431 2.593907 1.922156
