39

Li 2.580818 1.534579 4.718823
Li 0.267081 4.924995 4.688689
Li 2.846334 6.492465 2.692533
Li 5.520589 5.028112 4.710273
Li 8.100085 6.594999 2.713615
Li 5.785912 9.986053 2.683715
O 3.398644 5.227595 5.626621
O 1.951363 1.987167 2.960024
O 0.974435 3.413733 5.644307
O 2.327200 2.504746 0.553416
O 1.458251 4.678540 0.490358
O 1.170704 5.158432 2.921260
O 4.009666 2.848103 5.667190
O 1.187790 6.379636 6.201208
O 0.572994 1.302045 6.201895
O 1.767594 7.671762 1.179593
O 4.463838 4.379912 0.515451
O 5.239451 4.350376 2.933573
O 3.127430 7.170201 4.469359
O 7.793963 10.218054 1.200646
O 6.599312 3.848588 6.223400
O 4.968346 6.292856 1.776052
O 7.179108 5.140680 1.201711
O 4.357482 8.672370 1.735312
O 7.196503 6.361648 4.481029
O 6.908563 6.841428 6.911863
O 6.039731 9.015333 6.848761
O 7.392622 8.106337 1.757990
O 6.416003 9.533671 4.442373
O 3.903018 7.140361 6.887490
P 2.594264 1.598079 1.639562
P 0.311368 4.914022 1.613700
P 2.931721 6.490384 5.764595
P 5.435026 5.029973 1.638174
P 5.772943 9.922343 5.762963
P 8.055672 6.606076 5.788663
V 8.366948 4.243851 0.003601
V 2.786584 3.829595 6.868035
V 5.580481 7.690530 0.534373
