56

Li 1.293941 7.569066 3.396563
Li 2.973450 1.177336 7.813428
Li 5.561332 5.550536 5.437141
Li 7.240841 3.195856 1.020285
O 3.378673 7.642964 3.685778
O 0.779516 3.417752 1.185202
O 0.888718 1.103428 8.102635
O 1.073164 5.382168 2.824315
O 1.100168 7.047824 5.491266
O 1.174890 4.698339 6.489025
O 1.365830 1.227968 3.592441
O 1.628582 7.909843 1.390100
O 1.952314 5.558758 0.446597
O 2.315077 3.187652 4.863454
O 2.638810 0.836550 5.806947
O 2.901561 7.518433 8.009298
O 3.092501 4.048062 2.072168
O 3.167223 1.698569 1.074409
O 3.194228 3.364242 7.241162
O 0.342680 1.970582 5.783255
O 3.487875 5.328657 5.602058
O 3.924711 6.775820 1.366399
O 4.610071 2.402610 3.050449
O 5.046907 0.955448 7.648511
O 5.156109 3.269763 0.731078
O 5.340555 7.737443 6.009407
O 5.367559 6.071769 3.342447
O 5.442281 8.421271 2.344697
O 8.192102 6.343782 7.467314
O 5.895973 5.209750 7.443622
O 6.219705 7.560853 8.387116
O 6.582468 1.185548 3.970268
O 6.906201 3.536642 3.026766
O 7.168952 5.601169 0.824424
O 7.359893 0.325139 6.761545
O 7.434615 2.674632 7.759313
O 7.461619 1.008967 1.592542
O 7.646064 5.476638 5.147935
O 7.755266 7.790953 3.231655
O 5.633221 3.145241 5.241272
P 0.238581 5.935859 6.028470
P 1.617631 4.562761 1.681153
P 1.719912 1.685300 4.969900
P 2.547487 7.061092 0.553052
P 2.649760 4.183640 6.098018
P 4.028810 2.810551 1.611614
P 4.505972 7.183743 2.805243
P 5.885022 8.556840 7.152551
P 8.296201 1.562650 7.222090
P 6.814878 6.058501 8.280670
P 6.917151 0.189569 2.735704
P 5.987303 2.687892 3.863804
V 1.101934 1.266986 1.416530
V 3.165457 7.479424 5.833387
V 5.369325 3.106223 7.417183
V 7.432848 5.640178 3.000326
