72

Li 6.271511 6.960868 8.249694
Li 2.594632 2.018788 3.952049
Li 7.027704 2.471040 10.052921
Li 1.838439 6.508617 2.148822
Nb 2.213300 8.715466 7.631617
Nb 6.695472 4.102904 7.448004
Nb 6.603743 8.592732 10.854611
Nb 6.652843 0.264190 4.570126
Nb 6.646371 4.754019 1.341928
Nb 2.170671 4.876753 4.753739
Nb 2.262400 0.386924 1.347132
Nb 2.219772 4.225638 10.859815
P 0.996031 3.581725 1.770153
P 7.983430 7.907531 1.644319
P 8.556254 6.731205 6.121368
P 4.742961 2.241376 12.181246
P 3.437040 8.071553 4.330718
P 7.870112 5.397932 10.431590
P 3.550358 5.561955 7.934008
P 0.309889 2.248452 6.080375
P 5.429103 0.908104 7.871025
P 4.123182 6.738281 0.020497
P 5.315785 3.417702 4.267735
P 0.882713 1.072126 10.557425
O 7.378750 4.310406 9.422819
O 3.788086 2.976217 11.224487
O 7.250209 8.781584 2.687495
O 1.070613 1.278335 6.989699
O 3.896900 0.936452 7.869111
O 0.644985 7.466046 7.266945
O 3.075133 7.474738 0.898459
O 2.866380 6.692601 3.900875
O 4.969243 8.043204 4.332633
O 4.897666 7.736621 11.523470
O 7.297128 5.003743 11.808427
O 5.920464 8.800234 8.879796
O 2.817137 4.687902 8.977184
O 5.999763 2.287056 8.300868
O 7.513294 8.316455 0.241956
O 3.362458 5.768163 11.501733
O 0.464595 5.732864 5.422598
O 3.306238 7.069585 8.189285
O 8.221158 1.513611 4.934798
O 2.945678 0.179423 3.321947
O 1.569015 3.975914 0.393316
O 6.049006 4.291755 3.224559
O 2.864057 8.465742 5.707555
O 0.648549 8.125709 1.939473
O 1.352849 0.663202 11.959788
O 5.503685 3.211493 0.700010
O 3.968477 1.243036 0.678273
O 1.126834 2.579757 10.302147
O 5.791019 1.504919 11.303284
O 1.487393 4.669251 2.778924
O 7.508196 5.994747 6.999331
O 1.566692 2.202773 2.199996
O 7.739309 6.399900 1.899596
O 0.536171 5.426281 10.622322
O 8.329972 3.553376 1.579421
O 8.217593 0.853947 10.262270
O 6.002086 0.513915 6.494188
O 1.357947 2.984910 5.202412
O 3.080222 5.153030 6.531645
O 5.081621 5.343776 8.040345
O 8.401548 3.246792 6.779145
O 3.784522 3.635881 4.161398
O 1.615934 0.198073 9.514248
O 5.559905 1.910072 4.012458
O 7.299451 6.776884 10.001747
O 5.785921 3.826627 5.670098
O 5.078057 6.003439 0.977256
O 7.795530 7.701322 5.212044
