36

Li 2.240327 6.914786 3.123284
Li 5.123097 4.493089 -1.147066
O 3.576573 6.144444 -0.846464
O 1.771498 1.378833 5.441414
O 5.591911 10.029043 -3.465200
O 4.444448 9.697202 1.652680
O 1.030223 6.629466 -0.167828
O 0.094208 7.193743 4.077594
O 4.732689 7.841235 -2.441041
O 5.492542 8.378095 -0.420550
O 2.486346 6.620165 1.406773
O 3.640628 8.032558 4.016638
O 0.258669 1.898070 -0.632576
O 7.104754 9.509797 2.608796
O 1.485540 4.354666 0.303177
O 1.088188 4.986699 3.818095
O 6.333186 4.778394 2.144056
O 5.877884 7.053201 1.673043
O 2.918976 1.710666 0.323540
O 3.786850 5.263423 2.822684
O 3.722796 3.375309 -2.040417
O 4.877078 4.787710 0.569445
O 1.870867 3.029772 2.396775
O 2.630728 3.566644 4.417268
O 7.269209 4.214128 -2.101372
O 6.275236 6.421168 -1.841875
P 5.234108 5.530343 1.677540
P 3.296808 2.598197 5.100283
P 7.116823 10.439000 -4.509795
P 4.066609 8.809675 -3.124061
P 2.129309 5.877529 0.298681
P 5.123001 7.270157 -1.337538
P 2.240408 4.137719 3.313761
P 0.246601 0.968867 6.486016
Fe 1.028331 2.445706 0.900325
Fe 6.335093 8.962169 1.075892
