38

Li 0.000019 0.000047 2.337844
Li 0.000066 4.716588 2.337703
Li 4.716411 0.000043 2.337542
Li 4.716430 4.716678 2.337340
O 3.030470 0.448339 3.541586
O 8.984281 6.403152 3.541027
O 0.448418 1.686400 3.541992
O 0.448645 3.030384 1.134130
O 1.289611 6.006332 0.695877
O 1.289413 8.143748 3.979135
O 1.686677 0.448479 1.133660
O 1.686281 4.268254 3.541459
O 3.030225 4.268227 1.133484
O 8.984356 7.747098 1.132912
O 3.427281 8.144107 0.695631
O 3.426810 6.006069 3.979132
O 4.267964 3.029891 3.541661
O 4.267870 1.685776 1.134160
O 5.164867 7.747204 3.541104
O 8.143258 3.426902 3.978934
O 6.006022 3.427014 0.695917
O 6.005588 1.289353 3.979236
O 6.402305 8.985102 1.133192
O 6.402324 5.165091 3.541149
O 7.746353 8.984915 3.541109
O 7.746570 5.164848 1.133244
O 8.143532 1.289740 0.695900
O 5.164971 6.403324 1.133169
P 9.164816 2.358105 4.675377
P 7.074300 0.267864 4.675683
P 0.267874 7.075327 4.675575
P 2.358418 4.984787 -0.000278
P 2.358455 9.165474 4.675297
P 7.074574 4.448372 -0.000439
P 4.984643 2.357904 4.675699
P 4.448613 7.075311 4.675262
Mn 2.358672 2.358127 2.337180
Mn 7.074338 7.074871 2.337041
