44

Li 2.208302 0.691856 1.446699
Li 2.208302 3.540665 1.446699
Li 6.900690 4.924369 3.626063
Li 6.900690 7.773186 3.626063
O 3.406699 0.846360 5.374062
O 7.793407 0.812653 -1.082310
O 8.619575 2.116261 3.564177
O 8.071004 2.116261 1.209765
O 1.315584 5.045165 6.155065
O 1.315584 7.652398 6.155065
O 0.489417 6.348782 1.508578
O 1.037988 6.348782 3.862996
O 1.073404 0.850432 3.459361
O 1.073404 3.382089 3.459361
O 0.959049 2.116261 0.652928
O 7.793407 3.419869 -1.082310
O 3.406699 3.386161 5.374062
O 3.668637 6.348782 5.206459
O 3.243366 5.041872 2.909344
O 3.243366 7.655691 2.909344
O 3.576181 2.116261 1.898967
O 4.012247 6.348782 1.076387
O 8.035597 7.614610 1.613399
O 5.532811 6.348782 3.173794
O 5.865626 0.809351 2.163411
O 5.865626 3.423170 2.163411
O 5.440354 2.116261 -0.133704
O 5.702283 5.078881 -0.301306
O 5.702283 7.618682 -0.301306
O 8.149942 6.348782 4.419820
O 8.035597 5.082953 1.613399
O 5.096745 2.116261 3.996368
P 8.625905 2.116261 -1.342723
P 8.848083 6.348782 1.453640
P 4.856486 6.348782 -0.222250
P 5.037782 2.116261 2.431971
P 0.483086 6.348782 6.415485
P 0.260909 2.116261 3.619121
P 4.071209 6.348782 2.640777
P 4.252505 2.116261 5.294998
Mn 2.268922 4.794668 4.523489
Mn 2.268922 7.902887 4.523489
Mn 6.840069 0.562155 0.549266
Mn 6.840069 3.670366 0.549266
