28

Cr 4.568415 2.092578 6.619824
Cr 1.522803 5.670903 5.573603
Cr 4.568421 1.485807 2.555787
Cr 1.522803 5.064096 1.508705
P 4.568409 4.325542 0.994137
P 1.522797 0.747316 3.070281
P 4.568409 6.409143 5.058679
P 1.522803 2.830853 7.134611
O 2.738292 1.869247 7.035417
O 0.307308 1.869249 7.035418
O 3.352835 5.287091 1.092884
O 5.783984 5.287081 1.092883
O 2.738371 1.708834 2.971554
O 3.352920 5.447475 5.157837
O 5.783898 5.447473 5.157836
O 0.307229 1.708836 2.971555
O 1.522803 6.276772 7.026982
O 4.568409 0.879837 1.102124
O 1.522803 4.458098 2.962280
O 4.568409 2.698555 5.166160
O 1.522803 6.916270 1.886097
O 4.568409 3.338024 2.178345
O 4.568409 0.240161 6.242929
O 1.522803 3.818414 5.950290
O 1.522803 0.023508 4.428081
O 1.522803 3.554883 0.363200
O 4.568409 7.133123 3.701261
O 4.568409 3.601748 7.765175
