48

Li 8.570504 2.508980 3.791041
Li 17.757669 4.311668 3.772799
O 6.556825 2.002629 1.193375
O 16.920222 2.774187 0.203652
O 17.073520 6.243915 4.703329
O 16.384115 2.996655 2.743658
O 0.161400 1.447033 3.416660
O 1.321610 4.289828 4.609620
O 1.306672 0.431290 0.356980
O 2.174308 3.922196 2.223935
O 2.116227 6.620578 3.102105
O 2.499350 2.100737 3.959453
O 3.615223 5.899336 0.749392
O 3.865132 4.048555 4.113462
O 5.310163 4.088156 1.077688
O 5.635076 5.804740 4.292238
O 18.136713 5.345016 1.771612
O 7.112134 6.495569 1.911081
O 7.196950 3.823985 2.761900
O 7.886354 0.576719 4.721582
O 7.733057 4.046454 0.221904
O 8.949548 1.475618 1.789859
O 9.348565 5.373615 3.398403
O 10.508776 2.530806 4.591368
O 16.299299 0.325072 1.892834
O 11.361473 2.898445 2.205683
O 11.303392 0.200070 3.083853
O 11.686515 4.719911 3.941211
O 12.802388 0.921298 0.731140
O 13.052297 2.772093 4.095220
O 14.497328 2.732478 1.059431
O 14.822241 1.015894 4.273996
O 15.743990 4.818005 1.175123
O 10.493837 6.389358 0.338738
P 16.882573 5.994170 1.127451
P 16.004446 3.248978 1.293390
P 13.795429 1.762406 -0.006222
P 11.540678 3.161162 3.695899
P 1.471765 0.835174 3.971482
P 2.353513 3.659478 3.714151
P 4.608264 5.058235 0.012025
P 10.658931 5.985467 3.953240
P 7.695408 0.826471 1.145703
P 6.817281 3.571669 1.311632
Mn 1.715703 5.623004 1.308233
Mn 7.506704 5.618864 3.797414
Mn 10.902868 1.197643 1.289986
Mn 16.693869 1.201770 3.779172
