38

Li 0.000187 4.926082 2.363756
Li 4.925578 4.925500 2.363708
Li 4.926022 0.000225 2.363726
Li 9.851393 9.851295 2.363632
O 0.338542 3.175736 1.103883
O 0.338522 1.750148 3.623581
O 1.406894 8.444957 4.002251
O 1.406845 6.332673 0.725138
O 1.750086 4.587439 3.623512
O 1.750136 0.338468 1.103834
O 3.175620 0.338484 3.623669
O 3.175630 4.587327 1.103810
O 3.519147 6.332707 4.002254
O 3.519147 8.444923 0.725058
O 4.587371 1.750267 1.103728
O 4.587470 3.175726 3.623572
O 5.264248 6.675884 1.103777
O 5.264317 8.101373 3.623621
O 6.332581 1.406737 4.002277
O 6.332551 3.518933 0.725086
O 6.676078 5.264263 3.623506
O 6.676078 9.513215 1.103699
O 8.101622 5.264290 1.103837
O 8.101504 9.513192 3.623529
O 8.444893 3.518977 4.002230
O 8.444814 1.406673 0.725088
O 9.513147 8.101433 1.103744
O 9.513255 6.675875 3.623447
P 0.386933 7.388640 -0.000051
P 2.462814 5.312762 -0.000048
P 2.462853 9.464646 4.727332
P 4.538832 7.388640 4.727349
P 5.312876 2.463049 -0.000057
P 7.388855 0.387034 -0.000016
P 7.388875 4.538897 4.727321
P 9.464805 2.462971 4.727347
Sn 2.462627 2.462986 2.363689
Sn 7.388786 7.388388 2.363622
