28

Li 6.198726 4.067988 3.137693
Li 3.498436 4.067988 4.591277
Li 7.637699 1.355996 4.582253
Li 0.633069 4.067988 1.673985
Li 2.072043 1.355996 3.118545
Li 4.772333 1.355996 1.664960
Ni 6.203134 4.067988 0.011234
Ni 2.067634 1.355996 6.245003
P 3.259617 4.067988 1.480835
P 7.397408 1.355996 1.484097
P 0.873360 4.067988 4.772141
P 5.011151 1.355996 4.775402
O 1.813002 5.320467 4.760779
O 0.020139 1.355996 0.202709
O 2.321555 5.322045 1.489983
O 5.949213 0.101938 4.766255
O 6.457766 0.103517 1.495459
O 8.250629 4.067988 6.053529
O 4.143010 1.355996 3.503730
O 0.001042 1.355996 2.732067
O 6.457766 2.608475 1.495459
O 2.321555 2.813930 1.489983
O 1.813002 2.815509 4.760779
O 8.269726 4.067988 3.524171
O 4.112929 1.355996 6.036618
O 4.127759 4.067988 2.752508
O 5.949213 2.610054 4.766255
O 4.157839 4.067988 0.219620
