24

Li 4.937692 2.724163 4.323335
Li 4.005664 8.067743 -1.274932
Li 8.476797 9.722973 0.089617
Li 0.465773 1.069645 2.958829
O 8.408867 5.328309 -0.251366
O 0.987814 6.764026 1.401350
O 7.955301 4.028232 1.647072
O 3.483694 2.373410 0.922010
O 6.707115 6.223419 1.611299
O 5.927277 4.344997 0.106094
O 0.534257 5.463795 3.300232
O 1.455965 2.690247 2.655765
O 5.458750 8.418742 2.126513
O 2.235830 4.568851 1.437258
O 7.487284 8.102196 0.392949
O 5.005622 7.118939 0.023989
O 3.015516 6.447143 2.942717
O 3.937314 3.673612 3.025120
P 2.822430 3.244392 2.027646
P 6.120121 7.547695 1.021104
P 7.293617 4.899313 0.742933
P 1.649454 5.893034 2.305769
Cr 0.001780 3.741494 -0.847450
Cr 4.469317 5.395708 -0.847317
