74

Li 10.291494 4.138512 7.628981
Li 4.277472 3.503967 8.220366
Li 8.374889 3.050025 -0.408768
Li 2.360867 0.861516 5.331711
Li 4.277472 6.327021 3.071273
Li 10.291494 5.692476 2.479887
Li 2.360867 2.415480 0.182618
Li 8.374889 0.226971 4.740326
Co 4.319972 3.350820 2.294500
Co 1.689369 4.862898 2.576544
Co 1.689369 4.968090 7.725637
Co 8.332389 0.073824 0.368004
Co 8.332389 3.203172 5.517098
Co 0.000000 3.276996 5.149094
Co 10.962992 1.585902 0.085961
Co 10.962992 1.691094 5.235054
Co 4.319972 6.480168 7.443594
Co 0.000000 0.000000 0.000000
P 11.537890 4.814713 0.014765
P 5.312246 1.484925 -0.218923
P 3.344449 5.909630 0.070122
P 1.114471 1.537717 2.647739
P 7.340115 5.069067 8.030521
P 11.537890 5.016275 5.163859
P 7.340115 4.761921 2.881428
P 9.307912 2.632634 2.592382
P 3.344449 3.921358 5.219216
P 1.114471 1.739279 7.796833
P 9.307912 0.644362 7.741476
P 5.312246 1.792071 4.930170
O 2.249729 2.843358 5.224126
O 3.442695 5.221093 9.029598
O 2.031375 0.543667 7.373286
O 12.545853 4.737330 4.039780
O 12.613126 5.271998 6.309698
O 0.106508 1.460334 8.920912
O 0.039235 1.281994 1.501900
O 4.918454 1.766006 3.462145
O 2.042610 2.941628 8.195963
O 4.833544 0.043040 0.364177
O 10.609751 3.612364 -0.384365
O 9.449922 1.627304 1.475347
O 8.183636 3.990817 7.352892
O 3.442695 4.609894 3.880504
O 2.249729 0.433638 0.075032
O 12.613126 4.558989 1.160604
O 4.468725 0.713821 5.607800
O 7.733895 4.787986 4.349456
O 10.609751 6.218624 4.764729
O 5.803980 4.825475 2.567351
O 12.545853 5.093658 -1.109313
O 2.042610 0.335368 3.046869
O 7.818817 3.320036 2.298328
O 8.183636 5.840170 2.203799
O 4.833544 3.233956 5.513270
O 0.106508 1.816662 3.771818
O 5.803980 5.005513 7.716445
O 4.468725 2.563174 0.458706
O 9.209666 1.944097 3.931094
O 3.202439 4.904300 1.187158
O 9.449922 1.649692 6.624440
O 7.733895 5.043002 -0.799638
O 7.818817 6.510952 7.447422
O 6.848381 1.728517 5.244247
O 3.202439 4.926688 6.336252
O 10.620986 3.820663 5.587406
O 10.402632 6.120353 7.736566
O 10.620986 6.010325 0.438312
O 6.848381 1.548479 0.095153
O 10.402632 3.710634 2.587473
O 9.209666 1.332898 -1.217999
O 2.031375 2.733329 2.224193
O 4.918454 1.510990 8.611239
O 0.039235 1.995002 6.650994
