28

Li 6.513501 1.484052 3.975275
Li 3.453951 4.959405 0.928676
Li 8.437677 4.959405 1.523299
Li 1.529775 1.484052 3.380651
Ni 6.475465 4.951383 3.940976
Ni 8.475713 1.476031 1.489001
Ni 1.491739 4.951383 3.414949
Ni 3.491987 1.476031 0.962974
P 9.019029 3.219511 3.999637
P 4.035303 3.219511 3.356288
P 0.948423 6.694863 0.904313
P 5.932149 6.694863 1.547662
O 9.407481 6.691159 1.281716
O 4.423755 6.691159 1.170259
O 1.157331 6.705171 4.268585
O 6.597656 1.034286 0.978672
O 5.543697 3.215806 3.733691
O 3.369796 4.509638 3.925279
O 3.387199 1.922767 3.926667
O 1.613930 1.034286 1.473304
O 8.353522 4.509638 3.430647
O 6.580253 5.398119 0.977284
O 6.141057 6.705171 3.087341
O 3.826395 3.229819 1.816610
O 8.810121 3.229819 0.635366
O 1.596527 5.398119 1.474691
O 8.370925 1.922767 3.429259
O 0.559971 3.215806 3.622234
