68

O 7.981562 2.835838 2.174461
O 7.981562 1.835838 10.693694
O 5.902474 7.507514 4.259617
O 5.902474 6.507513 8.608538
O 1.274462 6.507513 10.693694
O 1.274462 7.507514 2.174461
O 3.353550 1.835838 8.608538
O 3.353550 2.835838 4.259617
O 7.584590 0.654044 0.282610
O 7.584590 4.017632 12.585544
O 6.299446 5.325720 6.151467
O 6.299446 8.689307 6.716688
O 1.671434 8.689307 12.585544
O 1.671434 5.325720 0.282610
O 2.956578 4.017632 6.716688
O 2.956578 0.654044 6.151467
O 3.836641 6.172545 11.662743
O 5.419384 3.170806 1.205412
O 8.464653 7.842482 5.228666
O 8.464653 6.172545 7.639489
O 0.819130 0.885432 1.827111
O 0.819130 3.786244 11.041044
O 3.808882 5.557108 4.606967
O 3.808882 8.457919 8.261188
O 8.436894 8.457919 11.041044
O 8.436894 5.557108 1.827111
O 5.447142 3.786244 8.261188
O 5.447142 0.885432 4.606967
O 3.373830 1.174936 0.905133
O 3.373830 3.496740 11.963022
O 1.254182 5.846611 5.528944
O 1.254182 8.168415 7.339211
O 5.882194 8.168415 11.963022
O 5.882194 5.846611 0.905133
O 8.001842 3.496740 7.339211
O 8.001842 1.174936 5.528944
O 2.944101 0.029114 3.324629
O 2.944101 4.642562 9.543526
O 1.683911 4.700789 3.109448
O 1.683911 9.314237 9.758707
O 6.311924 9.314237 9.543526
O 6.311924 4.700789 3.324629
O 7.572113 4.642562 9.758707
O 7.572113 0.029114 3.109448
O 0.791372 3.170806 5.228666
O 0.791372 1.500869 7.639489
O 3.836641 7.842482 1.205412
O 5.419384 1.500869 11.662743
Fe 2.315228 4.351273 4.905328
Fe 2.315228 0.320402 7.962827
Fe 2.312784 9.022949 1.528750
Fe 2.312784 4.992078 11.339405
Fe 6.940796 4.992078 7.962827
Fe 6.940796 9.022949 4.905328
Fe 6.943240 0.320402 11.339405
Fe 6.943240 4.351273 1.528750
Mo 9.012517 2.335838 6.434077
Mo 4.871520 7.007513 0.000000
Mo 0.243507 7.007513 6.434077
Mo 4.384505 2.335838 0.000000
Mo 3.665423 1.093069 4.572853
Mo 3.665423 3.578606 8.295302
Mo 0.962589 5.764745 1.861224
Mo 0.962589 8.250282 11.006931
Mo 5.590602 8.250282 8.295302
Mo 5.590602 5.764745 4.572853
Mo 8.293435 3.578606 11.006931
Mo 8.293435 1.093069 1.861224
