40

Cr 6.824133 0.531903 0.404200
Cr 2.274662 7.793385 4.522806
Cr 2.274662 4.694547 4.522806
Cr 6.824133 3.630741 0.404200
P 4.783027 6.243966 -0.313697
P 8.594131 2.081322 -1.570212
P 8.855921 6.243966 1.119074
P 4.315768 2.081322 5.240703
P 4.033287 6.243966 2.542967
P 5.065509 2.081322 2.384039
P 0.504665 6.243966 -0.090267
P 0.242874 2.081322 3.807932
O 8.135342 6.243966 4.251029
O 0.545600 6.243966 1.457456
O 5.562685 2.081322 -0.300199
O 3.271781 7.534985 2.908639
O 7.826875 0.790902 -1.210143
O 3.271781 4.952947 2.908639
O 5.827014 0.790303 2.018367
O 8.028340 7.513289 1.231908
O 5.509393 6.243966 3.110730
O 1.271921 4.953546 6.137149
O 3.589402 2.081322 1.816276
O 8.084125 2.081322 1.112567
O 5.128709 2.081322 3.932560
O 1.014670 6.243966 3.814439
O 3.485476 3.350271 5.342932
O 3.536110 6.243966 5.227205
O 8.553195 2.081322 3.469550
O 0.963453 2.081322 0.675977
O 3.970086 6.243966 0.994446
O 5.613320 4.975017 -0.415926
O 3.485476 0.812373 5.342932
O 5.613320 7.512915 -0.415926
O 5.827014 3.372341 2.018367
O 1.070455 0.811999 3.695098
O 7.826875 3.371742 -1.210143
O 1.271921 7.534386 6.137149
O 1.070455 3.350645 3.695098
O 8.028340 4.974643 1.231908
