80

Li 2.325243 9.233592 6.289905
Li 9.417682 1.666026 3.333951
Li 7.148738 1.609786 7.657282
Li 4.914470 -0.100683 6.713448
Li 7.369836 3.177614 1.368512
Li 5.579330 1.890684 4.860181
Li 8.897269 5.916588 0.031119
Li 6.549874 8.421230 9.576142
Li 2.283405 5.407400 4.781020
Li 2.111024 6.984987 1.977676
Li 0.240980 4.885895 2.939878
Li 3.698024 7.095409 8.258346
O 0.884657 5.772158 0.872227
O 6.037210 0.480806 1.652319
O 6.822780 0.529095 5.966135
O 8.896232 1.326874 8.652544
O 8.935458 2.126178 1.417751
O 8.008924 0.269751 3.726739
O 9.404297 0.485360 5.747495
O 8.637924 -0.338645 0.811467
O 0.261498 8.598946 8.825104
O 1.140802 9.302444 3.881721
O 0.827594 7.932164 5.910123
O 2.752978 8.722845 8.206348
O 1.949004 8.739522 0.975330
O 1.005044 6.736575 3.675222
O 0.901985 5.960052 7.993034
O 4.018757 8.685342 5.602963
O 3.699228 8.442122 3.052810
O 8.985935 3.385411 4.015236
O 3.043154 5.538330 9.215099
O 1.197581 3.720573 9.088281
O 5.623203 7.375838 8.263824
O 4.029559 6.418347 4.414599
O 5.983533 8.120079 4.142127
O 2.033649 3.986225 3.466639
O 1.831581 2.878283 6.508215
O 3.813529 4.299608 6.106573
O 8.084117 8.121348 6.084758
O 6.095418 6.099060 6.169346
O 6.786529 7.406051 1.566731
O 3.683308 2.999214 8.297796
O 1.585415 0.986730 8.432027
O 5.830916 4.816292 8.291163
O 5.233598 5.453626 1.335720
O 1.099424 1.505289 1.232354
O 3.262716 3.447993 1.347517
O 7.896090 6.222138 8.043960
O 6.537868 5.626959 3.450515
O 8.703401 7.460577 3.516523
O 4.575323 3.486790 3.532282
O 3.012656 1.618066 3.146504
O 8.719888 3.085126 6.568010
O 8.555989 5.375289 5.469214
O 6.714203 3.553853 5.213719
O 7.784880 5.069345 1.352581
O 3.812883 0.930066 0.565684
O 5.763433 2.635823 0.421888
O 5.847667 0.476675 8.774041
O 4.137344 1.741608 6.182142
P 4.390202 7.940308 4.342855
P 6.361358 6.138445 7.735549
P 3.366313 2.940239 6.721072
P 3.181535 3.137396 2.926014
P 6.595841 5.888244 1.882864
P 8.264923 3.806001 5.276900
P 5.394336 1.115426 0.411697
P 8.051231 -0.055575 5.251589
P 1.657262 9.157435 9.184205
P 0.504415 7.996799 4.386530
P 1.493403 5.277671 9.233876
P 9.294868 1.008170 0.443180
Cr 2.476080 0.141219 1.956131
Cr 9.431761 6.687589 6.799865
Cr 4.567084 4.239100 -0.020438
Cr 2.447333 2.271568 -0.010953
Cr 7.333771 6.807097 4.805379
Cr 5.204871 4.831084 4.814906
Cr 7.359934 8.898213 2.801387
Cr 0.313825 2.448328 7.707781
