30

Li 4.870251 1.636515 4.959986
Li 1.573413 3.513091 2.555009
Li 1.552943 1.700363 0.074331
Li 1.548359 3.507950 7.516030
Li 1.537974 1.685748 4.980261
Li 3.129292 4.403247 0.124739
Li 4.808934 3.558005 2.619369
Li 3.173617 4.398303 4.968281
Cu 4.898241 1.655805 0.169493
Cu 4.771287 3.523405 7.447773
P 0.011273 4.316680 5.015770
P 3.151461 0.948840 7.513688
P 3.173387 0.926848 2.525108
P 0.030033 4.301104 0.141725
O 0.005260 0.547991 9.611446
O 4.497359 1.656746 2.047260
O 0.016462 0.558192 4.642594
O 3.168230 0.939957 9.083818
O 4.455894 1.631438 6.995233
O 3.166270 4.689304 7.063922
O 1.280943 3.624201 9.469811
O 1.931758 1.675183 6.968286
O 5.064823 3.597459 9.555242
O 0.000485 4.126169 1.645688
O 0.015964 4.130644 6.588741
O 3.209439 0.966858 4.081697
O 1.973689 1.692266 1.963490
O 1.302652 3.612232 4.508559
O 3.196826 4.689624 2.085594
O 5.090962 3.581253 4.566681
