48

Li 1.120544 12.668240 0.906704
Li 1.359009 4.322227 3.790186
Li 2.656903 11.291268 3.816568
Li 2.895368 5.699198 1.554443
Li 5.136455 8.238884 3.367856
Li 5.374920 2.646814 1.105721
Li 6.672815 9.615855 1.132113
Li 6.911280 1.269843 4.015590
O 1.424195 0.428596 2.063489
O 7.375005 6.111403 0.965739
O 7.069595 12.532789 0.536458
O 6.698003 3.802616 0.152785
O 0.349473 9.800577 2.418130
O 0.656818 7.826679 3.956550
O 0.962229 1.405293 4.385841
O 1.333821 10.135467 4.769509
O 1.129274 4.362453 0.689306
O 7.682351 4.137506 2.504169
O 1.756335 12.935656 4.188405
O 2.259577 5.966628 3.418349
O 2.591709 7.397637 0.397663
O 2.682091 3.166426 2.837240
O 2.886629 11.331494 1.771841
O 3.053675 8.374334 3.220923
O 6.902549 9.575630 4.232983
O 3.666431 2.831535 0.043022
O 4.365392 11.106547 4.879266
O 4.672730 13.080444 1.272095
O 4.978148 5.563762 1.701376
O 5.145194 2.606575 3.150453
O 5.349733 10.771657 2.085049
O 5.440115 6.540445 4.524636
O 5.772247 7.971468 1.503950
O 6.275489 1.002427 0.733883
O 6.607629 13.509486 2.858800
O 3.359093 0.857652 3.650204
P 7.741714 4.539856 1.021711
P 6.263634 13.562632 1.353399
P 5.784102 6.593591 0.884434
P 4.306029 11.508898 1.216123
P 0.290109 9.398226 3.900588
P 1.768190 0.375464 3.568900
P 3.725794 2.429185 3.706166
P 2.247722 7.344491 4.037865
Mn 1.832621 2.280396 1.040327
Mn 2.183299 9.249437 1.420820
Mn 5.848525 4.688645 3.501479
Mn 6.199202 11.657687 3.881957
