36

Li 1.623479 6.166743 10.225215
Li 5.609561 -1.607050 5.073969
O 4.180330 4.073336 12.611830
O 6.421550 -0.730613 7.586067
O 0.226072 4.498548 3.348918
O 0.811410 5.290346 7.713129
O 1.355188 4.137900 5.594066
O 3.624118 4.651620 7.715133
O 2.052875 4.121372 10.543935
O 0.903290 1.919209 1.901194
O 1.576125 2.984431 7.313871
O 5.434677 4.488319 5.929484
O 7.006896 0.061093 11.950155
O 4.871789 3.998108 10.543069
O 3.706668 2.482259 4.629119
O 0.288304 0.783096 6.458313
O 6.944642 3.776627 8.840907
O 3.526380 2.077446 10.670047
O 5.877830 0.421828 9.705118
O 3.052761 0.486397 2.687364
O 1.798371 0.071407 9.369661
O 5.656886 1.575285 7.985331
O 6.329613 2.640521 13.397874
O 5.179940 0.438269 4.755155
O 3.608886 -0.091908 7.584063
O 2.361106 0.561583 4.756117
P 5.288297 0.185239 8.118295
P 7.177759 2.393623 8.146659
P 1.944671 4.374560 7.180858
P 0.055281 2.166152 7.152456
P 5.055129 3.467292 4.701284
P 2.177788 1.092434 10.597846
P 3.563224 0.948990 4.264792
P 3.669570 3.610720 11.034330
Mn 7.232440 1.130606 13.962292
Mn 7.232556 4.559697 10.745288
