14

V 0.898884 0.496270 1.190298
V 2.696653 4.049575 7.048061
V 2.696653 4.049302 10.525207
V 0.898884 0.496543 4.667443
O 2.696653 2.436100 10.486522
O 0.898884 2.109745 4.628758
O 0.898884 2.109922 1.229041
O 2.696653 2.435923 7.086805
O 2.696653 0.005410 5.057429
O 2.696653 0.005378 0.800323
O 0.898884 4.540435 10.915193
O 0.898884 4.540467 6.658087
O 0.898884 0.010769 2.928882
O 2.696653 4.535075 8.786646
