48

Li 3.535732 10.552225 6.375079
Li 1.029006 15.292997 3.308820
Li 3.984446 1.937151 2.823697
Li 1.477720 6.677923 -0.242561
Mo 1.514097 6.372157 3.245254
Mo 4.020823 2.242917 6.311513
Mo 3.499354 10.857992 2.887263
Mo 0.992628 14.987231 -0.178989
P 0.701161 12.275878 1.724666
P 1.283714 0.652575 5.270540
P 3.790440 7.962500 1.257827
P 1.223011 9.267649 4.874690
P 3.207887 13.569345 4.790925
P 3.729737 16.577574 0.861977
P 1.805565 3.660803 1.341592
P 4.312290 4.954271 4.407851
O 2.499176 13.786100 6.217664
O 0.055018 11.541081 0.651653
O 0.586529 1.176319 6.605051
O 1.764735 5.213602 1.591642
O 1.329096 16.307974 5.386336
O 1.855639 9.717149 6.093399
O 2.215033 16.089013 0.848338
O 1.920197 9.791394 3.540179
O 3.684355 0.922175 0.746181
O 2.514276 3.444048 -0.085146
O 4.958434 5.689068 5.480864
O 0.651087 1.102075 4.051832
O 2.798418 1.141135 5.284179
O 3.093254 7.438755 2.592338
O 5.005901 12.059122 2.204950
O 3.157813 7.512999 0.039118
O 4.271461 3.401473 4.657900
O 0.741991 13.828676 1.474617
O 2.785559 5.369621 4.266265
O 2.561743 14.304142 3.717912
O 2.451708 2.926007 2.414605
O 3.248717 12.016547 4.540876
O 0.291693 7.473939 2.217920
O 4.721759 9.756210 3.914597
O 4.426923 16.053829 -0.472534
O 2.227893 11.860528 1.866252
O 4.362365 16.128074 2.080686
O 0.278833 3.245454 1.200013
O 1.177630 7.692899 4.758894
O 0.007550 5.171026 3.927567
O 3.835822 9.537249 1.373623
O 4.734618 13.984695 4.932511
