24

Li 4.666648 0.323694 -4.084098
Li 4.708423 2.764111 -0.210490
Li 6.783098 -1.690470 -2.801010
Li 2.591963 4.778272 -1.493569
Fe 0.000000 3.561617 -0.506839
Fe 4.687526 -2.017711 -4.011678
P 0.766421 0.455016 0.496568
P 7.908978 0.942144 -4.881427
P 8.608677 2.632791 -4.791159
P 1.466092 2.145661 0.586839
O 1.665950 3.189948 -0.373862
O 7.709111 -0.102140 -3.920718
O 3.451713 1.830771 0.164315
O 7.409765 3.588037 -6.693856
O 2.731746 -0.930607 -0.463651
O 0.010978 5.420109 3.684956
O 1.965315 -0.500236 2.399274
O 9.364102 -2.332315 -7.979537
O 6.643325 4.018404 -3.830931
O 7.685167 -1.444428 -5.607510
O 1.689913 4.532222 1.312919
O 5.923366 1.257037 -4.458907
O 6.810558 2.411064 -4.329595
O 2.564504 0.676745 0.035006
