42

O 0.246294 3.450005 4.047977
O 0.626265 1.959189 5.923633
O 0.626265 4.940822 5.923633
O 1.189430 0.266534 7.644944
O 1.189430 6.633491 7.644944
O 1.163855 10.350016 7.229635
O 0.907889 1.071199 3.559359
O 0.907889 5.828812 3.559359
O 1.473546 8.554261 3.956319
O 1.473546 12.145771 3.956319
O 2.592024 0.372904 5.263337
O 2.592024 6.527120 5.263337
O 2.835265 2.235700 6.772891
O 2.835265 4.664311 6.772891
O 1.572491 3.450005 0.113332
O 3.638436 10.350016 6.830023
O 2.375661 9.135711 0.170464
O 2.375661 11.564321 0.170464
O 2.618902 7.272901 1.680018
O 2.618902 13.427117 1.680018
O 3.737391 1.654250 2.987033
O 4.964637 10.350016 2.895377
O 4.303042 7.971210 3.383994
O 4.303042 12.728822 3.383994
O 4.047066 3.450005 -0.286286
O 4.021501 7.166530 -0.701590
O 4.021501 13.533488 -0.701590
O 4.584662 8.859200 1.019722
O 4.584662 11.840832 1.019722
O 3.737391 5.245761 2.987033
P 0.039045 1.948397 4.563078
P 0.039045 4.951613 4.563078
P 1.794680 1.064534 6.511506
P 1.794680 5.835477 6.511506
P 2.412716 10.350016 7.911159
P 2.798205 3.450005 -0.967802
P 5.171876 11.851624 2.380279
P 3.416242 12.735488 0.431852
P 5.171876 8.848408 2.380279
P 3.416242 7.964544 0.431852
V 2.605468 0.000000 3.471676
V 2.605468 6.900011 3.471676
