14

Li 2.295467 1.518266 0.403532
O 3.992226 0.491759 2.890849
O 1.743886 4.724751 0.770258
O 0.526600 2.097630 -0.422577
O 4.034564 4.237401 1.800512
O 5.676123 4.105906 -0.574726
O 0.773374 0.275668 1.609905
O 6.044029 2.077163 1.543818
O 2.356986 0.045475 -0.544458
O 5.480683 2.202485 -1.689244
P 3.061287 -0.659164 3.959566
P 0.252954 5.384153 0.308363
P 5.711534 1.244834 -2.681243
Ni 6.230142 4.120737 1.095234
