60

Li 0.823300 6.954819 4.615535
Li 1.272659 1.704445 4.940921
Li 1.881427 4.481958 3.385401
Li 1.249359 3.661572 0.927977
Li 2.880399 8.908966 6.097311
Li 2.248331 9.729341 3.639887
Li 2.857107 6.951817 2.084365
Li 3.306458 1.707436 2.409753
Li 4.953059 8.787331 3.570164
Li 5.402418 3.542939 3.895550
Li 6.011185 0.765425 2.340038
Li 5.379118 1.585812 -0.117386
Li 7.010158 6.833195 5.051932
Li 6.378090 6.012809 2.594508
Li 6.986866 8.790333 1.039002
Li 7.436216 3.539948 1.364382
O 0.186384 4.734326 2.195770
O 7.514574 6.852799 1.153644
O 6.827358 6.313631 -1.158365
O 8.073133 5.760441 3.784140
O 0.090202 0.516857 6.039298
O 0.744942 3.641967 4.826281
O 1.432159 4.181136 7.138282
O 8.169315 9.977910 -0.059372
O 1.049429 8.885342 5.037676
O 0.507225 1.763646 1.041254
O 1.006001 6.996672 1.388463
O 1.536567 1.054871 3.170764
O 2.593199 6.302254 3.854530
O 3.123749 1.749289 5.636827
O 3.622550 7.011029 5.984030
O 3.080329 3.637958 1.987613
O 3.943374 9.981709 4.829519
O 2.697599 9.428520 -0.112994
O 3.384816 8.889351 2.199007
O 4.219961 4.730527 4.993918
O 4.039556 5.764240 0.985991
O 4.874701 1.605416 3.780902
O 5.561917 1.066247 6.092911
O 4.316143 0.513058 1.150406
O 5.179188 6.856808 3.992305
O 4.636984 3.483738 -0.004117
O 5.135759 8.745478 0.343092
O 5.666326 4.192512 2.125385
O 6.722958 9.439896 2.809159
O 7.210087 1.609425 0.942242
O 7.752308 8.731132 4.938667
O 7.253508 3.498095 4.591456
P 8.011417 6.200875 -0.144725
P 8.039450 9.511554 3.654149
P 4.349825 4.264171 1.280397
P 3.881659 9.541275 0.900646
P 0.248099 4.293892 6.124642
P 0.220067 0.983213 2.325760
P 4.377858 0.953492 5.079271
P 3.909692 6.230596 4.699528
Mn 0.766235 8.857132 0.549995
Mn 3.363523 3.609749 6.475293
Mn 4.895994 6.885018 -0.495368
Mn 7.493281 1.637635 5.429914
