28

V 1.827644 1.703140 4.367186
V 2.512299 1.702631 9.209055
V 0.703961 4.086465 0.479683
V 0.019306 4.085956 5.321552
V 0.703972 7.491739 0.479084
V 0.019291 7.492028 5.321505
V 1.827630 9.875260 4.367272
V 2.512310 9.875549 9.209693
O 2.535768 -0.000035 0.144459
O 1.803785 -0.000069 4.987878
O 3.612124 5.789165 4.700860
O 0.727429 5.789131 9.544279
O 1.842816 1.557012 2.769671
O 2.497504 1.557255 7.617673
O 0.034478 4.232084 6.919067
O 0.689165 4.231841 2.071065
O 0.689205 7.346189 2.071560
O 0.034456 7.345946 6.918961
O 1.842795 10.021342 2.769816
O 2.497543 10.021099 7.617217
O 0.705610 2.105309 9.674328
O 0.017675 2.105459 4.828661
O 2.513949 3.683787 0.014410
O 1.826013 3.683637 4.860077
O 1.826038 7.894544 4.859994
O 2.513992 7.894370 0.014405
O 0.705653 9.472918 9.674372
O 0.017700 9.472744 4.828783
