24

Li 4.386362 2.193181 10.420340
Li 0.328189 0.164095 3.473447
Mo 0.000000 0.000000 0.000000
Mo 0.000000 0.000000 6.946893
P 3.027322 4.627919 13.145614
P 1.499963 2.242396 9.047520
P 1.687229 2.336029 2.100627
P 3.214588 4.721552 6.198720
O 4.058455 6.037259 6.462328
O 1.268761 4.642411 13.409221
O 2.666324 2.303442 7.736640
O 3.445790 2.321537 1.837019
O 1.055225 1.497893 0.789747
O 1.377710 3.636319 2.007847
O 4.394202 3.856309 6.291499
O 0.994629 1.886586 3.356132
O 2.048227 4.660506 7.509600
O 2.416434 4.425618 4.943215
O 3.659326 5.466055 14.456493
O 3.336842 3.327629 13.238393
O 0.320349 3.107639 8.954741
O 3.719922 5.077363 11.890109
O 2.298117 2.538330 10.303025
O 0.656096 0.926690 8.783912
