72

Li 0.008034 5.289488 14.398890
Li 3.708082 0.780244 8.056222
Li 3.724151 8.238246 5.808918
Li 7.424199 3.729001 -0.533750
O 0.566715 3.420343 14.725513
O 0.513887 1.344521 13.319899
O 1.065321 1.425471 10.754596
O 0.426149 0.376919 3.565013
O 0.934284 2.504047 7.827844
O 1.019658 7.089714 9.064610
O 0.726739 3.659468 5.548307
O 1.684055 4.082787 10.327230
O 1.265412 1.188547 5.717103
O 0.927543 5.643491 3.408263
O 2.032062 8.592032 12.127883
O 2.696459 2.580469 13.390502
O 2.781833 7.013291 14.627269
O 2.089914 8.014849 4.843788
O 2.048160 5.750026 7.015343
O 2.650795 5.934716 11.700517
O 1.667957 1.240782 -0.082773
O 1.626202 3.505604 2.088782
O 3.202230 5.853766 9.135214
O 2.788574 1.134246 3.524307
O 2.450705 5.697791 1.215467
O 3.149401 7.929588 7.729600
O 2.989378 8.168713 1.384263
O 4.142266 4.132326 10.497583
O 3.289967 4.886163 3.367557
O 4.442855 0.849776 12.480877
O 4.282832 1.088901 6.135540
O 4.981528 3.320698 12.649672
O 4.643659 7.884243 10.340833
O 4.230003 3.164723 4.729926
O 5.806031 5.512885 11.776358
O 5.764276 7.777707 13.947912
O 4.781438 3.083773 2.164623
O 5.384073 3.268463 6.849797
O 5.342319 1.003641 9.021352
O 4.650400 2.005198 -0.762129
O 4.735774 6.438020 0.474637
O 5.400171 0.426457 1.737257
O 6.504690 3.374998 10.456877
O 6.166821 7.829942 8.148037
O 5.748178 4.935702 3.537910
O 6.705494 5.359021 8.316833
O 6.412575 1.928775 4.800530
O 6.497949 6.514443 6.037296
O 7.006084 8.641570 10.300127
O 6.366912 7.593018 3.110544
O 6.918346 7.673968 0.545241
O 6.865518 5.598146 -0.860373
P 0.902474 0.529863 11.963173
P 0.517425 2.445408 6.442251
P 1.341696 2.159153 14.350307
P 1.714579 0.353047 4.379030
P 2.374420 6.668397 8.104805
P 2.813643 5.039108 10.491939
P 2.001538 4.862291 2.553540
P 4.233541 2.063836 13.374821
P 3.198692 6.954653 0.490319
P 5.430695 4.156198 11.311600
P 4.618590 3.979381 3.373201
P 5.057813 2.350092 5.760335
P 5.717654 8.665442 9.486110
P 6.090537 6.859337 -0.485167
P 6.914808 6.573081 7.422889
P 6.529759 8.488626 1.901966
Sb 0.196709 5.845442 5.526895
Sb 3.912825 7.682292 12.459465
Sb 3.519408 1.336197 1.405675
Sb 7.235524 3.173047 8.338245
