14

O 1.201655 4.008790 -2.000133
O 3.548674 3.937572 -3.500442
O 3.451543 0.514130 0.550915
O 3.342994 3.138097 -1.236899
O 1.651047 0.640318 4.776261
O 1.748177 4.063760 0.724904
O 1.856727 1.439793 2.512717
O 3.998065 0.569099 3.275952
F 0.734617 1.524067 0.494257
F 4.465104 3.053822 0.781561
P 2.318358 0.320550 3.538861
P 2.881363 4.257339 -2.263043
Ni 0.000000 0.000000 0.000000
Ni 2.599860 2.288945 0.637909
