52

Li 0.664180 6.849371 3.430429
Li 8.245642 4.370213 1.330378
Li 8.128367 1.200813 4.463222
Li 5.731764 9.141088 4.413459
Li 3.060773 3.492530 3.480193
Li 0.546905 10.018759 0.554217
O 1.245139 5.021151 0.382400
O 7.547417 10.669686 1.502213
O 8.047326 10.545497 3.987058
O 8.129756 3.507680 4.346109
O 8.047642 6.329863 0.945444
O 8.307119 2.171595 1.402150
O 0.662800 9.156226 3.547541
O 0.745221 4.896951 3.906593
O 0.485419 7.820141 0.482459
O 0.744905 0.681316 0.939169
O 1.379225 0.658813 3.445058
O 1.794699 2.968209 5.128025
O 4.491075 10.916166 4.054355
O 2.414495 10.095975 5.616846
O 2.007171 2.574946 2.006792
O 2.839562 7.057091 4.865896
O 7.413321 6.307359 4.448593
O 2.650496 9.846072 1.981775
O 4.143066 2.100480 4.604198
O 4.301472 5.267608 3.839297
O 6.785367 8.223504 -0.122183
O 3.916710 0.493875 0.911760
O 4.120258 3.724606 1.204638
O 4.649490 7.749026 3.289452
O 4.672298 9.373141 0.679974
O 4.875845 6.142421 0.972852
O 5.952985 1.408544 3.027755
O 6.378052 4.447428 2.276805
O 6.142060 4.197514 -0.097168
O 6.299464 0.974239 -0.571164
O 6.997847 8.616756 2.765626
O 2.493083 6.622796 2.455778
P 0.907162 1.487872 2.206469
P 3.611925 6.651152 3.617671
P 3.439706 10.305773 0.798759
P 5.180630 1.002606 4.275979
P 5.352841 4.657227 1.085842
P 8.052487 9.778210 2.702473
P 0.740060 4.129652 5.191173
P 7.885376 7.136430 -0.321854
Fe 6.662623 1.027911 1.324589
Fe 6.420238 4.708832 4.150454
Fe 5.685700 7.907016 1.502813
Fe 3.106855 2.258470 0.381787
Fe 2.129924 6.676458 0.560019
Fe 2.372308 10.357378 3.743197
