30

Li 4.259996 7.350788 2.234717
Li 1.624977 0.812343 7.180316
Li 5.898911 4.417318 1.919183
Li 0.596037 5.998893 5.417949
Li 6.868205 7.045444 3.801066
Li 2.743062 3.298399 5.060636
Fe 3.464885 5.296736 0.106306
Fe 0.003116 3.619036 7.065257
P 2.620689 2.762060 1.825334
P 0.845799 5.832357 2.029930
P 4.215602 7.814835 5.478753
P 6.144001 4.824229 5.290115
O 3.785940 3.761633 1.172810
O 5.633635 8.168744 6.380636
O 6.827285 7.998356 1.868143
O 0.073873 0.456577 5.724572
O 0.310330 6.912811 1.304428
O 3.386334 1.753001 5.533892
O 5.255480 6.014417 0.886519
O 2.538712 5.843065 1.715654
O 4.462550 4.667042 5.692995
O 1.669233 4.613079 6.426592
O 3.106364 6.836637 6.258924
O 6.153585 4.816292 3.769614
O 4.666082 7.357005 4.140974
O 3.337496 8.767964 1.788773
O 0.702120 5.760483 3.543671
O 1.257348 2.468756 0.840219
O 2.119018 3.194980 3.167466
O 0.030470 2.717705 5.380640
