26

Sn 5.538157 7.281534 -1.473358
Sn 1.536431 1.400615 6.140843
P 4.413545 2.218360 1.590306
P 5.923609 4.239582 -0.002227
P 1.150979 4.442566 4.669711
P 2.170986 6.432316 0.078494
P 4.903602 2.249833 4.588990
P 2.661043 6.463789 3.077178
O 2.443775 6.102640 1.546727
O 4.163176 6.668283 3.284075
O 6.862704 5.947599 3.711675
O 0.211884 2.734549 0.955809
O 2.911412 2.013866 1.383409
O 3.683526 1.681106 5.261695
O 5.220918 3.765269 5.128395
O 0.914907 7.279502 -0.101530
O 1.853669 4.916879 -0.460911
O 1.675637 7.511133 3.510941
O 5.890493 5.756692 0.043317
O 6.159681 1.402646 4.769014
O 4.863899 3.690646 1.060103
O 5.398950 1.171015 1.156543
O 3.391062 7.001042 -0.594210
O 4.630820 2.579510 3.120757
O 2.210688 4.991502 3.607381
O 1.184095 2.925456 4.624167
