58

Fe 7.270184 3.039057 0.000000
Fe 5.948953 7.302626 9.332809
Fe 1.170573 7.322379 6.221873
Fe 2.491804 3.058810 3.110936
Fe 2.087247 2.562197 9.332809
Fe 6.353510 7.799239 3.110936
P 2.202978 1.783580 0.168936
P 1.477284 6.078670 3.405044
P 3.084810 8.184747 2.239538
P 6.237778 8.577856 6.390809
P 7.642844 4.983964 3.982335
P 7.191964 7.907799 12.274810
P 2.543031 7.386926 9.038702
P 5.897726 2.974510 2.816829
P 5.355947 2.176689 8.461411
P 1.248793 2.453636 6.052937
P 0.797913 5.377471 10.204208
P 6.963472 4.282765 9.626917
O 2.800356 1.154065 3.167730
O 7.775262 8.956240 6.440721
O 5.407326 1.704339 6.930407
O 2.246330 4.927510 2.875065
O 2.728188 2.037369 11.204647
O 3.945429 7.013236 9.568681
O 4.495328 3.348200 3.346808
O 7.165586 9.384372 12.224898
O 0.294388 5.294790 11.735211
O 8.360316 8.144213 3.546654
O 6.260636 3.649077 1.480893
O 0.080440 2.217222 9.768527
O 1.775243 7.213642 2.305801
O 2.585606 2.894938 1.106013
O 5.855150 7.466498 7.327886
O 0.665495 1.405196 0.218848
O 1.915630 4.396869 9.975952
O 1.368846 2.991937 7.460971
O 6.363149 3.774916 10.962853
O 6.144322 7.263433 11.337733
O 6.164749 9.686004 2.675219
O 4.035399 2.908306 8.689667
O 2.276008 0.675432 8.897092
O 6.525127 5.964567 3.754079
O 2.296434 3.098003 5.115860
O 2.180121 6.712359 7.702766
O 2.077608 6.586519 4.740980
O 6.992888 3.549662 3.916072
O 8.007003 7.545475 9.276016
O 3.033431 8.657097 0.708534
O 1.275170 0.977064 6.003025
O 4.405358 7.453130 2.467794
O 1.447868 6.811774 10.137945
O 6.665514 3.147793 8.527674
O 8.146369 5.066645 5.513339
O 6.194427 5.433925 9.096938
O 5.712569 8.324067 4.982775
O 0.433754 2.815961 3.054143
O 7.071911 7.369498 1.239098
O 5.640401 9.207371 9.389603
