44

Li 1.322984 7.060486 4.125404
Li 1.322991 5.068015 -0.307715
Li 5.491464 3.017652 6.000906
Li 5.491464 1.025182 1.567790
O 2.647747 0.632768 4.361818
O 5.749902 7.614119 -1.345074
O 6.463974 5.545636 0.517674
O 5.275514 3.300432 0.073237
O 0.510402 3.302122 7.480155
O 1.064553 0.471548 7.038265
O 0.350474 2.540032 5.175521
O 1.538934 4.785243 5.619957
O 0.510409 0.740712 3.047036
O 1.064553 3.571286 2.605149
O 0.350481 1.502802 0.742401
O 6.304046 4.783545 -1.786961
O 3.595289 1.829851 6.237827
O 1.538941 7.343266 1.186837
O 3.556304 7.348683 5.963075
O 3.258145 3.305849 4.163235
O 3.219159 5.872685 3.888483
O 4.166701 4.675602 5.764492
O 6.304046 7.344955 2.646155
O 3.595283 2.212982 1.804714
O 3.556304 4.779818 1.529959
O 3.258145 0.736984 -0.269881
O 5.275514 0.742410 4.506362
O 3.219159 6.255816 -0.544633
O 4.166694 7.452899 1.331379
O 6.463974 6.582865 4.950790
O 5.749895 4.514382 3.088046
O 2.647747 3.410065 -0.071298
P 6.515437 4.387243 -0.418731
P 6.515430 7.741258 4.014379
P 3.685138 3.403605 0.890685
P 3.129311 7.446439 0.369393
P 0.299018 3.698425 6.111922
P 0.299018 0.344409 1.678815
P 3.685131 0.639229 5.323796
P 3.129317 4.682062 4.802506
Ni 1.861401 1.877152 7.967671
Ni 1.861401 2.165681 3.534564
Ni 4.953048 5.919986 2.158630
Ni 4.953048 6.208515 -2.274477
