40

Li 8.791194 9.607553 4.675736
Li 0.061072 0.066743 1.496797
Fe 0.494567 5.619968 4.931051
Fe 6.486170 7.088482 4.626105
Fe 5.598429 1.038830 4.173032
Fe 4.431479 4.842991 4.581863
Fe 3.253836 8.635466 1.999501
Fe 8.357698 4.054328 1.241481
Fe 4.420786 4.831305 1.590670
Fe 2.366095 2.585814 1.546428
P 2.605956 2.847948 4.542556
P 0.984576 5.990671 1.868362
P 7.867690 3.683625 4.304171
P 5.922838 1.558172 1.271332
P 6.246309 6.826348 1.629977
P 2.929427 8.116124 4.901201
O 1.318687 7.522213 2.011276
O 2.403169 4.413652 4.909994
O 6.449097 5.260644 1.262539
O 2.350055 1.933534 5.665062
O 4.653193 6.872616 1.967478
O 3.477940 8.794818 6.063735
O 7.140007 7.168286 2.777236
O 7.428954 2.037743 1.168041
O 1.712258 2.506010 3.395297
O 1.423311 7.636553 5.004492
O 8.495829 4.290848 3.166972
O 6.033368 9.310116 4.426722
O 5.374325 0.879478 0.108797
O 8.762893 6.860141 4.864760
O 6.526280 4.716165 4.572129
O 0.356436 5.383448 3.005560
O 7.533579 2.152083 4.161256
O 4.753737 2.779023 1.543000
O 6.502210 7.740762 0.507471
O 2.818898 0.364180 1.745811
O 4.199072 2.801680 4.205055
O 4.098528 6.895273 4.629533
O 0.089372 2.814155 1.307773
O 2.325986 4.958131 1.600403
