74

Li 2.374748 1.031817 5.614940
Li 2.374748 2.313242 0.261713
Li 4.282646 3.526488 8.649164
Li 4.282646 6.508688 3.295937
Li 8.507442 0.181429 4.889718
Li 8.507442 3.163629 -0.463509
Li 10.415339 4.376875 7.923942
Li 10.415339 5.658300 2.570716
Mn 0.000000 3.345059 5.353227
Mn 1.687064 5.052490 8.035254
Mn 0.000000 0.000000 0.000000
Mn 1.687064 4.982685 2.682027
Mn 4.434119 6.646250 7.714026
Mn 4.434119 3.388926 2.360799
Mn 8.355969 3.301191 5.824856
Mn 8.355969 0.043867 0.471629
Mn 11.103024 1.707432 5.503628
Mn 11.103024 1.637627 0.150401
O 0.227548 1.511906 9.246930
O 0.172653 1.991200 6.931997
O 0.227548 1.833152 3.893704
O 0.172653 1.353859 1.578771
O 2.154605 2.963621 8.453087
O 2.124024 0.545539 7.697928
O 2.304966 2.996336 5.408429
O 3.480694 5.252090 9.441428
O 2.154605 0.381437 3.099860
O 2.124024 2.799520 2.344701
O 3.295545 5.023174 6.570978
O 2.304966 0.348722 0.055202
O 3.480694 4.783086 4.088201
O 5.000592 1.571649 8.999872
O 3.295545 5.012002 1.217751
O 4.455696 0.828765 5.827397
O 4.899819 3.333799 5.641793
O 5.920493 5.102412 8.067917
O 5.000592 1.773410 3.646645
O 4.455696 2.516294 0.474170
O 4.899819 0.011259 0.288566
O 5.920493 4.932764 2.714690
O 6.869594 1.757353 5.470965
O 7.890269 6.678858 7.897089
O 8.334392 4.173824 7.711485
O 7.789496 4.916708 4.539010
O 6.869594 1.587705 0.117738
O 7.890269 3.356318 2.543862
O 8.334392 5.861352 2.358259
O 9.494542 1.678116 6.967904
O 7.789496 5.118468 -0.814216
O 9.309393 1.907031 4.097454
O 10.485122 6.341395 8.130453
O 9.494542 1.666943 1.614678
O 10.666063 3.890597 5.840954
O 10.635482 6.308680 5.085795
O 9.309393 1.438027 -1.255773
O 10.485122 3.693781 2.777226
O 10.666063 6.144578 0.487727
O 10.635482 3.726496 -0.267432
O 12.617434 5.336258 6.606885
O 12.562539 4.856965 4.291952
O 12.617434 4.698917 1.253658
O 12.562539 5.178211 -1.061275
P 1.216529 1.760886 8.099866
P 1.216529 1.584173 2.746639
P 3.419123 4.063296 5.414200
P 3.419123 5.971879 0.060973
P 5.346691 1.850727 5.117784
P 5.346691 1.494331 -0.235442
P 7.443396 5.195786 8.421098
P 7.443396 4.839390 3.067871
P 9.370965 0.718238 8.124682
P 9.370965 2.626821 2.771455
P 11.573558 5.105944 5.439016
P 11.573558 4.929231 0.085789
