60

Li 0.778285 6.887592 4.506327
Li 7.397064 3.484709 1.090375
Li 6.786300 8.666504 0.696920
Li 6.287547 5.955972 2.307599
Li 6.971546 6.722050 4.781265
Li 1.389049 1.705798 4.899782
Li 1.887803 4.416329 3.289103
Li 1.203804 3.650251 0.815438
Li 2.883871 8.836402 5.950664
Li 2.199872 9.602479 3.476998
Li 2.698626 6.891948 1.866319
Li 3.309390 1.701441 2.259774
Li 4.865960 8.670860 3.336929
Li 5.476724 3.480353 3.730384
Li 5.975477 0.769822 2.119705
Li 5.291479 1.535899 -0.353961
O 7.395200 3.408805 4.380943
O 6.521607 6.119450 -1.353935
O 7.380812 6.782759 0.868189
O 8.155900 9.823202 -0.291183
O 0.019449 0.549099 5.887886
O 0.794538 3.589542 4.728514
O 1.653751 4.252851 6.950636
O 0.172148 4.690064 2.146735
O 1.060776 8.819920 4.912959
O 0.455580 1.779067 1.026109
O 0.780149 6.963496 1.215760
O 7.114573 1.552381 0.683744
O 2.518187 6.290406 3.673342
O 3.307526 1.777346 5.550341
O 3.632095 6.965218 5.739993
O 3.026899 3.633770 1.853143
O 3.915526 9.876215 4.619366
O 2.433932 9.439001 -0.184537
O 4.107124 4.637051 4.718487
O 3.293137 8.775693 2.037587
O 4.882212 1.596608 3.559116
O 4.068226 5.735250 0.878216
O 5.741417 0.933300 5.781240
O 4.259823 0.496086 0.977336
O 5.148451 6.738531 3.743560
O 4.543254 3.407083 -0.143290
O 4.867824 8.594955 0.046361
O 5.657162 4.081895 1.923360
O 6.605862 9.268045 2.503944
O 1.569487 1.104256 3.092759
O 7.719770 8.593234 4.570594
O 8.003201 5.682237 3.449968
P 4.462760 0.937231 4.861645
P 3.712590 9.435070 0.735058
P 4.311548 4.207441 1.131549
P 7.951476 9.393591 3.295755
P 0.375085 4.248920 6.031043
P 0.223874 0.978710 2.300948
P 7.800264 6.123381 -0.434340
P 3.863801 6.164860 4.465154
Cu 7.576350 1.486745 5.084540
Cu 4.686674 6.672895 -0.657236
Cu 3.488675 3.699406 6.253938
Cu 0.599000 8.885556 0.512163
