36

Li 6.359350 4.572447 9.836385
Li 0.644231 2.467101 1.626442
Co 2.563395 1.240659 3.775560
Co 4.440187 5.798890 7.687267
P 4.718964 2.404244 7.436398
P 1.173821 5.360037 6.151521
P 1.717320 10.080043 5.885131
P 2.284617 4.635304 4.026429
P 5.286262 -3.040495 5.577696
P 4.865465 8.053341 6.041504
P 5.829761 1.679511 5.311306
P 2.138117 -1.013793 5.421323
O 3.218160 1.983066 2.355330
O 2.566708 -0.508716 3.025871
O 1.174746 9.554638 8.427215
O 2.308325 3.150919 4.243326
O 2.104345 5.485027 5.094755
O 6.076357 3.084328 5.122827
O 2.852699 8.619959 5.886353
O 5.059766 6.593664 6.416212
O 0.927218 3.955224 6.339998
O 2.098525 6.104613 7.029898
O 6.427194 1.892630 8.178683
O 1.721845 -0.858009 1.099499
O 6.973495 5.340813 8.370667
O 5.828836 -2.515090 3.035607
O 4.436874 7.548264 8.436956
O 5.281737 7.897557 10.363328
O 1.943816 0.445884 5.046615
O 4.899237 1.554521 6.368072
O 4.695257 3.888629 7.219501
O 4.905057 0.934935 4.432929
O 0.030087 1.698736 3.092160
O 4.150883 -1.580411 5.576474
O 0.576388 5.146918 3.284144
O 3.785422 5.056483 9.107497
