72

O 5.876126 21.363716 2.634161
O 6.340990 15.699036 4.363003
O 6.343997 9.826286 2.670033
O 5.604886 19.792659 6.774276
O 5.818092 1.740065 4.443579
O 4.944250 8.726770 7.932237
O 5.192862 17.265400 5.893138
O 5.058203 3.469058 6.391798
O 0.125884 6.987623 3.915582
O 0.122864 12.860372 5.608557
O 0.861988 2.893977 1.504316
O 0.648776 20.946594 3.835012
O 1.522624 13.959889 0.346349
O 0.590735 1.322942 5.644421
O 1.274012 5.421281 2.385448
O 1.408671 19.217578 1.886787
O 1.472241 0.600176 2.322448
O 0.613932 17.901562 6.933537
O 1.327887 10.065738 3.872796
O 1.761154 11.943630 1.816930
O 1.824782 7.873987 2.252492
O 1.959448 16.764789 1.753900
O 1.710849 2.616396 3.792973
O 1.580800 17.541579 4.255103
O 1.539205 14.955276 5.164305
O 1.694274 3.611852 6.014660
O 1.652699 6.198090 6.923948
O 2.371465 14.237434 2.634970
O 1.905637 21.409409 7.306093
O 2.619463 6.557961 4.245490
O 3.359324 4.355561 1.015192
O 2.642647 12.666290 5.534650
O 3.356349 21.169830 2.708088
O 2.584684 9.603109 7.343981
O 3.882177 13.083550 0.934616
O 3.110524 1.516828 5.570511
O 3.824214 10.020369 2.743946
O 3.107543 18.331098 7.263399
O 3.847411 16.128698 4.033109
O 4.561237 1.277250 0.972499
O 4.095409 8.449225 5.643622
O 4.814162 16.488569 1.354642
O 4.772600 19.074784 2.263926
O 4.927662 7.731361 3.114293
O 4.886074 5.145080 4.023503
O 4.756012 20.070262 4.485624
O 4.994620 22.086483 5.956141
O 4.642092 14.812650 6.026093
O 4.705707 10.743029 6.461667
O 5.138974 12.620944 4.405800
O 5.852935 4.785097 1.345054
O 4.507420 5.921892 6.524691
P 1.777955 2.222210 5.312786
P 2.477341 13.253273 1.489409
P 1.455485 13.565639 5.866243
P 3.989533 9.433386 6.789191
P 4.688919 20.464427 2.965800
P 5.011376 9.121020 2.412354
P 4.987533 15.938610 5.088826
P 4.712781 4.595065 7.329046
P 0.756061 1.909846 2.649963
P 1.754086 18.091593 0.949538
P 1.479335 6.748049 3.189772
P 5.710813 20.776812 5.628629
Mo 5.082938 18.006244 7.694849
Mo 5.001126 1.378078 6.407535
Mo 4.699117 12.721620 6.010418
Mo 4.617305 6.662774 4.722973
Mo 1.849556 16.023885 3.555617
Mo 1.767757 9.965038 2.268181
Mo 1.465735 21.308581 1.871062
Mo 1.383929 4.680415 0.583735
