44

O 6.395408 1.346492 2.256288
O 11.168789 2.595481 0.636517
O 11.104704 0.083518 0.646129
O 10.865593 3.912810 7.742649
O 0.338546 5.225127 4.849844
O 0.402642 2.713169 4.840232
O 0.641753 1.283154 8.716434
O 0.895950 1.313626 2.460062
O 1.739552 1.294724 0.114413
O 2.437092 1.289055 6.011307
O 2.816903 2.577836 9.225338
O 2.860217 5.138691 3.729639
O 2.893450 0.120606 9.216000
O 2.936775 2.681460 3.738977
O 3.316586 3.970242 0.524946
O 4.014127 3.964578 5.600773
O 4.857718 3.945676 7.946423
O 5.111926 3.976143 3.230073
O 5.351026 2.546128 10.326593
O 9.767794 3.924381 5.371948
O 6.092213 2.663831 6.122877
O 6.156297 5.175784 6.132489
O 10.611396 3.943283 3.026299
O 6.649617 1.316019 8.512659
O 7.493208 1.334921 10.858309
O 8.190760 1.340601 4.961415
O 8.570571 0.051815 1.747384
O 8.613884 2.750263 7.243082
O 8.647117 2.509039 1.756722
O 8.690431 5.207493 7.233745
O 9.070242 3.918701 10.447776
O 5.415133 0.034175 10.336205
P 5.316941 3.938497 6.520430
P 6.190394 1.308840 9.938652
P 7.652987 1.309109 1.516715
P 9.608014 3.950193 7.003076
P 0.436726 1.320805 1.034069
P 1.899309 1.320537 9.456006
P 3.854347 3.938765 3.969645
P 11.070608 3.950462 4.452291
Mo 9.740740 3.935499 1.030986
Mo 7.520262 1.323803 6.517347
Mo 3.987073 3.953449 9.941736
Mo 1.766594 1.305853 4.455375
