36

Li 1.919081 6.681245 6.109589
Li 3.285292 13.494142 0.118561
O 1.537746 12.139247 3.395963
O 5.165913 8.706024 0.613467
O 0.038460 1.893127 5.614683
O 0.261582 9.973577 6.843309
O 0.164536 12.131658 5.596598
O 0.341880 7.003495 3.464773
O 0.957230 5.194044 6.691518
O 0.984438 4.672489 3.815878
O 1.070748 9.318681 3.831417
O 1.469168 1.930039 3.437892
O 3.262689 10.655071 4.941816
O 1.941684 3.842174 1.286326
O 1.947913 10.320449 1.306012
O 1.863785 8.129244 -0.053336
O 5.039837 5.318761 0.631552
O 3.256459 3.507566 4.922130
O 4.942791 3.160680 -0.615159
O 3.666626 5.326350 2.832180
O 3.735204 8.742936 2.790243
O 4.133625 2.505784 2.396726
O 4.219934 11.485386 2.412272
O 4.247143 12.006941 -0.463383
O 4.862492 0.190598 2.763370
O 3.340588 1.316347 6.281486
P 4.466502 11.216767 5.596888
P 5.074107 5.486698 2.205683
P 0.056525 1.729045 4.040480
P 0.130265 12.299595 4.022467
P 0.737871 4.403870 0.631255
P 1.150213 9.269846 0.616659
P 4.054160 2.456949 5.611484
P 5.147848 8.541942 2.187663
Cr 2.634485 10.432385 3.118108
Cr 2.569888 3.619501 3.110034
