44

Li 0.945040 1.360349 3.867930
Li 3.286244 3.892710 3.401102
Li 5.176324 1.172012 11.136961
Li 7.517528 3.704373 10.670133
O 0.763222 0.183849 2.140739
O 1.388809 2.788626 2.114861
O 0.768689 3.319373 4.838501
O 0.757036 4.727093 7.399468
O 0.886556 1.483361 9.207555
O 1.795300 1.953990 7.081323
O 0.574718 1.433175 11.574183
O 3.462595 0.787012 2.430530
O 2.842475 0.256265 5.154170
O 3.468062 2.716211 5.128292
O 3.656566 3.965536 7.776760
O 4.988320 2.869991 2.586588
O 2.435984 4.486351 12.269620
O 3.344728 4.015722 10.143388
O 5.117840 1.049000 4.394675
O 6.026584 0.578371 2.268431
O 3.474248 2.194732 11.951475
O 4.806002 1.099187 6.761303
O 4.994506 2.348512 9.409770
O 5.620093 4.808458 9.383893
O 4.999973 4.277710 12.107532
O 7.887850 3.631548 2.963880
O 6.667268 3.110732 7.456740
O 7.576012 3.581361 5.330508
O 7.705532 0.337630 7.138594
O 7.693879 1.745349 9.699562
O 7.073759 2.276096 12.423201
O 7.699346 4.880873 12.397324
P 0.227017 3.826114 1.827141
P 0.674932 1.175573 7.643350
P 4.004267 1.293753 5.441890
P 4.906216 1.356788 2.830470
P 3.556352 3.707934 11.707593
P 4.458301 3.770969 9.096173
P 7.787636 3.889150 6.894713
P 8.235551 1.238608 12.710921
V 2.005519 1.196839 0.954513
V 2.225765 3.729201 6.314518
V 6.236803 1.335522 8.223544
V 6.457049 3.867883 13.583550
