14

O 1.201892 3.933923 -1.733435
O 3.602064 3.863145 -3.137015
O 3.396161 0.577627 0.717430
O 3.311255 3.018486 -0.874630
O 1.527298 0.628947 4.832325
O 1.733201 3.914465 0.977880
O 1.818108 1.473606 2.569940
O 3.927471 0.558170 3.428745
F 0.817841 1.611394 0.580263
F 4.311521 2.880698 1.115047
P 2.264608 0.318771 3.594009
P 2.864754 4.173322 -1.898699
Co 0.000000 0.000000 0.000000
Co 2.564681 2.246046 0.847655
