56

Li 4.863655 7.273388 -2.715921
Li 4.938238 -0.796984 3.662341
Li 6.694569 5.898891 -0.326578
Li 3.107324 0.577504 1.272994
O 0.900832 1.016828 0.893695
O 8.242364 -0.796676 -2.186358
O 8.955618 -0.919723 -0.299723
O 9.794502 3.959895 -5.606517
O 0.007381 2.516503 6.552952
O 0.846265 7.396121 1.246158
O 1.559519 7.273074 3.132786
O 1.943400 5.322037 4.627612
O 0.457248 1.502814 4.159962
O 1.401140 6.128118 -0.313483
O 1.848939 0.341083 6.331615
O 3.157755 3.161880 4.845860
O 3.673089 4.977463 2.934605
O 2.929773 4.946859 1.047178
O 2.896623 7.803422 -3.274705
O 7.345972 7.082058 -2.875076
O 2.562585 4.142508 -0.826066
O 4.354085 6.434210 -0.893126
O 3.505242 2.670596 2.241899
O 2.455901 -0.605667 3.821510
O 5.696678 4.761198 1.321600
O 9.344625 4.973586 -3.213532
O 4.826408 5.544242 -3.432589
O 4.105205 1.715209 -0.375177
O 7.858493 1.154358 -3.681179
O 6.296642 3.805801 -1.295472
O 5.447798 0.042187 1.839554
O 7.239289 2.333892 1.772496
O 8.901061 5.459567 0.052730
O 6.905260 -1.327024 4.221124
O 6.872110 1.529538 -0.100759
O 6.128784 1.498929 -1.988170
O 6.644128 3.314518 -3.899433
O 7.952944 6.135315 -5.385196
O 8.400753 0.348277 1.259916
O 4.975485 0.932153 4.379005
P 6.872806 1.084888 1.279400
P 8.226534 -0.423761 4.535951
P 6.328596 1.778665 -3.371230
P 8.762678 -1.143342 1.086451
P 0.754549 8.283447 2.245184
P 1.039205 7.619739 -0.140016
P 3.473288 4.697732 4.317665
P 1.575349 6.900168 -3.589528
P 2.929087 5.391507 -0.332967
P 4.030779 4.206596 1.874902
P 5.771104 2.269802 -0.928475
P 9.047334 -1.807049 -1.298749
Cr 7.057454 5.108321 -3.258132
Cr 7.701477 4.315432 2.035394
Cr 2.100406 2.160965 -1.088966
Cr 2.744429 1.368077 4.204551
