40

O 0.817715 3.249315 7.419854
O 0.932430 0.425091 7.218768
O 0.637634 2.704716 5.100394
O 1.622907 4.976880 5.661481
O 0.817709 0.818866 2.919167
O 0.932430 3.643081 2.718096
O 0.637627 1.363456 0.599715
O 3.290242 1.826146 6.617274
O 2.716093 0.767225 4.547057
O 3.600234 7.459296 6.248462
O 1.622900 7.227637 1.160812
O 3.269707 3.391123 4.363869
O 4.153848 4.835406 6.065283
O 3.579700 5.894318 3.995057
O 3.290249 2.242035 2.116599
O 2.716100 3.300948 0.046382
O 3.600234 4.745222 1.747781
O 5.247041 0.908716 4.950856
O 3.269701 0.677050 -0.136801
O 4.153848 7.369112 1.564602
O 6.052226 4.887039 -1.308186
O 6.232315 6.772881 5.511944
O 5.937505 4.493272 3.393566
O 6.052219 7.317487 3.192489
O 5.247041 3.159457 0.450175
O 6.232315 5.431637 1.011262
O 5.937512 7.711254 -1.107109
O 3.579700 6.310208 -0.505615
P 0.484406 3.818281 6.152736
P 0.484406 0.249892 1.652046
P 3.227114 4.760096 4.995012
P 3.642828 0.691931 5.617329
P 3.227114 7.444422 0.494321
P 3.642821 3.376250 1.116650
P 6.385535 4.318064 -0.041068
P 6.385528 7.886462 4.459607
V 1.924051 1.860798 8.142505
V 1.924051 2.207374 3.641824
V 4.945891 5.928971 2.469835
V 4.945898 6.275547 -2.030849
