68

O 12.263867 6.783340 3.638334
O 12.263867 1.574739 8.464147
O 12.270660 4.395234 8.425444
O 12.270660 3.962853 3.599631
O 0.978934 1.574739 6.013290
O 0.978934 6.783340 1.187478
O 0.972141 3.962853 1.226181
O 0.972141 4.395234 6.051993
O 1.607716 0.724186 3.621347
O 1.607716 7.633901 8.447160
O 1.559856 3.115143 8.549592
O 1.559856 5.242953 3.723780
O 2.428438 3.003479 4.464986
O 2.428438 5.354609 9.290799
O 3.322778 0.940678 5.551779
O 3.322778 7.417418 0.725966
O 3.298623 3.238366 0.725966
O 3.298623 5.119713 5.551779
O 4.192962 1.175557 9.290799
O 4.192962 7.182522 4.464986
O 5.061544 1.063909 3.723780
O 5.061544 7.294178 8.549592
O 5.013685 3.454857 8.447160
O 5.013685 4.903239 3.621347
O 5.649260 0.216190 6.051993
O 5.649260 8.141905 1.226181
O 5.642466 2.604305 1.187478
O 5.642466 5.753783 6.013290
O 7.600335 2.604305 3.638334
O 7.600335 5.753783 8.464147
O 7.593541 0.216190 8.425444
O 7.593541 8.141905 3.599631
O 8.229116 3.454857 6.030277
O 8.229116 4.903239 1.204465
O 8.181257 1.063909 1.102032
O 8.181257 7.294178 5.927844
O 9.049839 1.175557 5.186638
O 9.049839 7.182522 0.360826
O 9.944178 3.238366 4.099846
O 9.944178 5.119713 8.925658
O 9.920023 0.940678 8.925658
O 9.920023 7.417418 4.099846
O 10.814363 3.003479 0.360826
O 10.814363 5.354609 5.186638
O 11.682932 3.115143 5.927844
O 11.682932 5.242953 1.102032
O 11.635085 7.633901 6.030277
O 11.635085 0.724186 1.204465
P 11.237629 3.911710 4.700042
P 11.237629 4.446385 9.525854
P 11.298957 1.470045 -0.005859
P 8.626573 8.090754 4.700042
P 1.943845 1.470045 4.831671
P 1.943845 6.888042 9.657483
P 2.005172 3.911710 0.125770
P 2.005172 4.446385 4.951583
P 4.616229 0.267342 4.951583
P 4.616229 8.090754 0.125770
P 4.677556 2.709007 9.657483
P 4.677556 5.649089 4.831671
P 8.565245 2.709007 4.819954
P 8.565245 5.649089 -0.005859
P 8.626573 0.267342 9.525854
P 11.298957 6.888042 4.819954
Nb 6.621401 7.092406 7.238728
Nb 6.621401 1.265690 2.412916
Nb 0.000000 5.444726 2.412916
Nb 0.000000 2.913353 7.238728
