46

O 1.572039 2.274151 2.727553
O 2.538258 4.979595 2.353634
O 2.801398 0.104427 2.262532
O 1.755503 7.225135 5.167445
O 1.572039 8.167505 7.733924
O 3.947115 1.722330 4.035577
O 2.538258 5.462062 7.360005
O 2.801398 10.337229 7.268903
O 4.030206 8.019213 4.429252
O 1.755503 3.216521 10.173816
O 3.698113 3.492859 6.299723
O 5.168985 5.391194 2.918301
O 4.098184 5.909069 5.721363
O 3.866993 8.104636 6.781691
O 5.896321 0.077258 3.714753
O 3.947115 8.719326 9.041948
O 4.030206 2.422443 9.435623
O 5.596389 0.787196 5.950076
O 3.698113 6.948797 11.306094
O 6.518931 2.461568 4.455723
O 5.168985 5.050462 7.924672
O 4.098184 4.532587 10.727733
O 3.866993 2.337020 11.788061
O 7.552351 5.659054 4.333889
O 5.896321 10.364398 8.721123
O 6.524727 2.779496 8.078256
O 5.596389 9.654460 10.956447
O 7.355821 4.783083 6.922879
O 6.518931 7.980088 9.462093
O 7.552351 4.782602 9.340260
O 6.524727 7.662160 13.084627
O 7.355821 5.658574 11.929249
P 2.961974 1.535874 2.673545
P 3.390329 7.366494 5.427104
P 2.961974 8.905783 7.679915
P 3.775197 4.883521 6.810697
P 5.597144 1.224556 4.581434
P 3.390329 3.075162 10.433475
P 3.775197 5.558135 11.817068
P 5.597144 9.217101 9.587805
P 6.709272 4.290915 8.055968
P 6.709272 6.150741 13.062339
Sb 0.588183 3.876935 1.576795
Sb 0.588183 6.564721 6.583166
Sb 4.699568 8.968401 2.546889
Sb 4.699568 1.473255 7.553260
