76

Li 1.823999 6.173650 8.680741
Li 1.786543 2.023529 17.380673
Li 5.434526 6.122107 8.719107
Li 5.397071 2.075065 0.019192
O 2.839332 7.614762 7.725140
O 7.081645 7.018582 14.807286
O 6.536368 7.011623 7.239231
O 6.609264 6.754690 12.074845
O 7.206310 2.316709 8.891818
O 0.139424 2.920005 11.292513
O 0.604822 6.606141 5.048623
O 0.611805 2.656113 14.024970
O 0.684702 2.913045 1.460701
O 0.705571 6.481741 2.182483
O 0.771210 0.582417 16.425073
O 0.844417 7.336575 10.049345
O 0.930839 0.478731 12.249679
O 1.174298 4.205059 3.626880
O 1.135217 4.031041 7.324595
O 1.494480 1.467433 7.120234
O 1.754951 1.799418 3.542056
O 1.855591 6.397753 12.241989
O 2.116062 6.729730 15.820167
O 2.475318 4.166122 16.024528
O 2.436244 3.992113 12.326813
O 2.679688 7.718432 3.549747
O 2.766124 0.860605 1.349412
O 0.014753 6.415303 17.207997
O 2.904971 1.715430 10.882415
O 2.925833 5.284134 10.160634
O 2.998737 5.541058 5.325037
O 3.005712 1.591030 13.748556
O 3.471117 5.277175 2.592580
O 3.625295 5.880462 0.191868
O 3.595782 1.781877 8.508064
O 3.749959 1.178589 6.107353
O 4.215357 5.689616 12.351242
O 4.222333 1.442481 3.374895
O 4.295244 1.185540 15.939164
O 4.316098 5.814016 15.217400
O 4.381745 3.516177 0.974793
O 4.454945 4.959182 7.350521
O 4.541374 3.619846 5.150186
O 4.784825 8.090698 13.772985
O 4.745752 0.067545 10.075270
O 5.105007 2.631144 10.279632
O 5.365478 2.299159 13.857792
O 5.466126 5.898004 5.157877
O 5.726590 5.566027 1.579699
O 6.085845 8.129635 1.375355
O 6.046772 0.106465 5.073053
O 6.290230 4.577325 13.850119
O 6.376652 3.237989 16.050454
O 6.449859 4.680995 9.674708
O 6.515499 2.383147 6.517468
O 6.616240 2.507564 3.651310
P 6.716273 6.801472 1.297299
P 6.561085 3.251990 10.026098
P 6.518950 6.956792 5.761530
P 6.501252 3.196397 14.581714
P 0.504796 2.702886 7.402634
P 0.659984 7.350576 16.073700
P 0.702119 2.858214 2.938385
P 0.719825 7.294982 11.518085
P 2.890710 0.902189 2.818152
P 2.908408 5.338965 11.638335
P 4.330360 5.000775 5.881781
P 3.105739 5.494285 16.102566
P 4.115338 1.395708 9.997232
P 4.270526 4.945181 1.326166
P 4.312654 1.240380 14.461463
P 2.950543 0.846596 7.373767
Mo 1.681390 2.236500 12.409845
Mo 1.929145 5.960671 3.709912
Mo 5.291932 1.862086 4.990003
Mo 5.539672 6.335085 13.689936
