12

Co 0.000000 0.000000 0.000000
Co 0.000000 0.000000 3.207722
P 3.057684 3.954049 4.811584
P 1.643690 2.125540 1.603861
O 1.385255 3.910750 4.811584
O 3.588817 4.640884 3.538381
O 3.316119 2.168839 1.603861
O 1.112557 1.438704 0.330658
O 1.112557 1.438704 2.877064
O 3.588817 4.640884 6.084786
O 3.657279 2.610010 4.811584
O 1.044095 3.469578 1.603861
