72

Li 4.778687 4.778678 2.379336
Li 9.557632 9.557662 2.379190
Li 0.000325 4.779366 7.138173
Li 4.779222 0.000450 7.138160
Sn 2.389143 2.389698 2.379328
Sn 7.168977 7.167821 7.138078
Sn 7.168623 7.168166 2.379239
Sn 2.388770 2.390109 7.138052
P 9.299829 2.389429 -0.000209
P 2.389286 9.300125 4.759437
P 7.168585 0.323296 4.758653
P 5.102105 2.389825 4.758677
P 5.036701 2.389796 9.516641
P 2.389277 9.234787 -0.000124
P 2.389554 5.036970 4.758694
P 4.521037 7.168192 4.759432
P 7.169053 4.456234 4.759264
P 7.168298 4.520912 -0.000042
P 0.258148 7.168540 4.758776
P 0.322854 7.167842 9.516786
P 4.455728 7.168172 -0.000082
P 7.168604 0.257949 -0.000871
P 9.235113 2.390145 4.759239
P 2.388808 5.101715 -0.000745
O 2.997891 0.477000 3.602150
O 2.997537 4.302405 5.914823
O 3.497851 6.060350 4.125225
O 1.330192 8.227360 8.829572
O 3.083367 0.409522 8.398373
O 4.302459 2.997747 8.361153
O 5.188489 7.862223 8.398272
O 9.081366 6.560339 3.601915
O 9.081385 7.776578 5.914845
O 6.109539 3.448912 5.446497
O 4.369602 3.084160 3.639135
O 1.781198 4.302576 3.602001
O 5.255489 6.560174 5.914949
O 1.781284 0.476570 5.914939
O 5.255958 7.776795 3.602049
O 6.474591 5.189174 3.639036
O 0.476410 1.781419 8.361313
O 6.060001 3.497647 0.633389
O 8.228052 3.449254 4.070682
O 1.329762 6.108800 0.687808
O 4.369555 1.695736 5.877867
O 1.695158 4.369500 8.398215
O 6.560325 5.255544 8.361297
O 1.694919 0.409358 1.119516
O 7.862713 5.188583 5.877962
O 1.281199 6.060150 5.391893
O 4.301952 1.781230 1.156442
O 0.476554 2.997658 1.156575
O 3.448399 6.109171 8.829662
O 5.188298 6.473770 1.119488
O 6.060192 1.281291 8.883901
O 9.147697 7.862322 1.119267
O 1.281409 8.276802 4.125240
O 7.776492 9.081293 8.361105
O 0.409496 3.083717 5.878029
O 6.109768 1.330916 4.070477
O 3.083252 4.368861 1.119473
O 0.410050 1.695589 3.639157
O 6.474438 9.148494 5.877814
O 3.497775 8.276658 5.392172
O 8.276491 1.281051 0.633278
O 3.448179 8.227071 0.688051
O 7.776616 5.255507 1.156632
O 8.276596 3.497875 8.884475
O 7.862895 9.148505 3.639050
O 8.227631 1.330580 5.446472
O 6.559971 9.081006 1.156483
O 9.148318 6.474204 8.397987
