40

Li 2.923115 4.318451 1.235190
Li 5.226667 8.747558 4.910102
Li 2.510084 4.539746 6.003041
Li 0.206515 0.110639 2.328117
O 4.493149 4.648994 -0.738774
O 3.575326 7.197427 4.331776
O 4.574456 2.768328 1.813524
O 1.857862 1.660770 2.906459
O 0.858726 6.089860 5.424704
O 4.036381 4.393019 4.332270
O 4.113402 8.822117 1.813021
O 1.396813 4.465178 2.905953
O 1.319781 0.036079 5.425216
O 4.116216 5.911996 1.770630
O 4.033566 1.482906 4.374671
O 1.316972 2.946201 5.467605
O 3.712275 2.955901 6.584857
O 4.437508 7.384999 -0.439556
O 1.720908 5.902287 0.653380
O 0.995681 1.473198 7.677782
O 1.399627 7.375290 2.863562
O 3.656633 0.219905 6.884075
O 0.052550 1.846296 1.087235
O 1.776549 8.638292 0.354153
O 2.769149 2.582802 -0.005701
O 5.380633 7.011901 6.150992
O 2.664044 6.275395 7.243915
O 0.940034 4.209203 7.977012
Cr 0.209884 5.832813 2.286832
Cr 5.223299 3.025384 4.951406
Cr 2.926484 7.454492 1.193895
Cr 2.506710 1.403705 6.044338
Ge 1.765732 7.450824 4.510874
Ge 1.488683 1.384882 -0.159968
Ge 0.950862 3.021735 3.820277
Ge 3.944500 7.473315 7.398196
Ge 4.205282 3.044208 -1.252895
Ge 3.667462 1.407373 2.727340
Ge 4.482320 5.836471 3.417951
Ge 1.227906 5.813989 8.491130
