56

Li 1.367392 3.125406 1.215852
Li 6.098007 10.968806 4.768112
Li 6.098007 10.172512 1.776130
Li 5.100092 3.921700 4.768112
Li 5.100092 3.125406 1.776130
Li 2.365315 10.968806 4.207833
Li 2.365315 10.172512 1.215852
Li 1.367392 3.921700 4.207833
O 0.602577 10.928610 1.725284
O 5.968326 1.386123 2.652105
O 5.968326 5.660968 5.644086
O 6.447612 8.929952 0.105796
O 6.447612 12.211366 3.097778
O 6.862822 3.165602 4.258679
O 6.862822 3.881504 1.266697
O 7.173383 0.660356 4.735206
O 0.292024 7.707462 4.240733
O 0.292024 13.433842 1.248751
O 0.602577 10.212708 4.717266
O 3.130123 3.165602 4.717266
O 1.017795 1.882846 2.886185
O 1.017795 5.164260 5.878167
O 1.497066 8.433230 0.339877
O 5.229774 12.708075 5.644086
O 2.235633 1.386123 0.339877
O 2.235633 5.660968 3.331859
O 2.714912 8.929952 2.886185
O 2.714912 12.211366 5.878167
O 7.173383 6.386736 1.743224
O 3.130123 3.881504 1.725284
O 3.440676 0.660356 4.240733
O 3.440676 6.386736 1.248751
O 4.024716 7.707462 4.735206
O 4.024716 13.433842 1.743224
O 4.335277 10.212708 4.258679
O 4.335277 10.928610 1.266697
O 4.750495 1.882846 0.105796
O 4.750495 5.164260 3.097778
O 5.229774 8.433230 2.652105
O 1.497066 12.708075 3.331859
P 0.342863 8.852716 5.343254
P 0.342863 12.288603 2.351273
P 3.389844 1.805610 5.343254
P 3.389844 5.241497 2.351273
P 4.075563 8.852716 3.632691
P 4.075563 12.288603 0.640709
P 7.122544 1.805610 3.632691
P 7.122544 5.241497 0.640709
Cr 6.224284 6.417997 3.696899
Cr 6.224284 0.629109 0.704917
Cr 4.973808 13.465103 3.696899
Cr 4.973808 7.676215 0.704917
Cr 2.491585 6.417997 5.279046
Cr 2.491585 0.629109 2.287065
Cr 1.241115 13.465103 5.279046
Cr 1.241115 7.676215 2.287065
