52

Li 0.800242 2.881640 8.034326
Li 6.923753 5.059523 1.474353
Li 4.475378 1.055944 5.165251
Li 3.046328 6.921339 4.314056
Li 2.999478 6.885219 9.397132
Li 0.753384 2.917760 2.971882
O 1.816893 7.027378 7.661896
O 6.775055 6.418650 8.010070
O 6.463319 3.449852 2.315668
O 6.836268 6.420515 2.955397
O 7.150664 6.810544 5.440358
O 7.208944 6.847033 0.295275
O 0.459119 1.154832 9.198003
O 0.404692 1.100856 4.105816
O 0.784147 1.589829 6.536424
O 1.038545 4.644384 7.324174
O 0.912949 1.522361 1.481420
O 1.150279 4.545367 2.132593
O 3.015566 5.593416 0.749524
O 1.982819 3.023799 9.769563
O 1.927473 2.963457 4.696406
O 1.872240 6.967036 2.589541
O 5.759635 1.045086 1.768929
O 2.886763 5.525940 5.804528
O 2.761168 0.640805 -0.038226
O 3.340593 5.158411 8.233456
O 6.432572 3.446233 7.354895
O 3.395020 5.104435 3.180121
O 4.190194 2.843454 6.344318
O 4.624083 2.415071 8.775024
O 4.248474 2.806965 1.199235
O 4.966574 7.449811 9.430198
O 4.562862 2.416937 3.684207
O 4.935819 7.453431 4.323925
O 5.639496 5.048665 4.870664
O 5.802199 1.022346 6.929470
O 5.596939 5.025925 -0.289877
O 2.649433 0.541788 5.153355
P 1.528852 1.601408 0.059312
P 2.270860 5.604986 7.226626
P 2.300422 5.512223 2.161081
P 5.276912 2.421389 7.314539
P 5.316687 2.499458 2.340561
P 6.122234 6.424967 9.470553
P 1.499291 1.508645 5.124867
P 6.082451 6.503037 4.299032
Cr 6.784668 5.145111 6.487062
Cr 4.614470 1.141532 0.152531
Cr 3.746783 4.083915 -0.310843
Cr 3.674482 3.954767 4.748171
Cr 0.125231 7.958346 2.537777
Cr 0.052930 0.080336 7.596801
