36

Li 1.852647 6.799304 5.792686
Li 3.435825 13.695990 0.139472
O 1.398838 12.371925 3.257670
O 5.192667 5.414094 0.427693
O 0.209291 10.143128 6.714229
O 0.095801 12.310766 5.504473
O 0.026564 8.761628 1.624028
O 0.991631 5.278202 6.481233
O 0.592975 7.070316 3.367808
O 1.090335 4.693888 3.696463
O 1.188515 9.427916 3.717663
O 1.329945 1.843853 3.303726
O 5.079176 3.246456 -0.782070
O 2.024586 3.952345 1.186691
O 2.010185 10.380111 1.211525
O 1.828156 8.264902 -0.237111
O 3.460311 1.368231 6.169263
O 3.278298 3.483440 4.720638
O 5.261903 1.864943 4.308138
O 3.889640 5.475254 2.674494
O 3.958527 8.740511 2.628433
O 4.099952 2.531244 2.214489
O 4.198132 11.590560 2.235696
O 4.695503 0.173658 2.564341
O 4.296842 12.174874 -0.549068
O 3.263881 10.849016 4.745469
P 5.267678 5.581766 1.999966
P 5.231034 1.691478 2.735301
P 0.020794 12.478438 3.932192
P 0.057443 8.588149 3.196856
P 0.779463 4.503361 0.570967
P 4.509005 11.400033 5.361192
P 4.137780 2.466774 5.400529
P 1.150698 9.363432 0.531628
Mn 2.611093 3.644532 2.957166
Mn 2.677379 10.541204 2.974992
