22

Li 1.072880 6.318361 2.007853
Li 4.144445 3.096897 7.293056
C 3.775523 4.847801 1.061421
C 1.441803 1.626337 8.239487
O 0.884060 3.620565 5.893545
O 4.961066 4.898204 1.660296
O 2.420980 1.789150 7.443858
O 2.796341 5.010614 1.857050
O 4.165497 2.876935 3.331987
O 0.703624 4.949960 3.710782
O 1.051829 6.098399 5.968921
O 4.513696 1.728496 5.590125
O 4.333266 0.399101 3.407363
O 2.297773 1.541264 4.304266
O 3.588972 4.610205 8.434004
O 1.628353 1.388741 0.866905
O 2.919553 4.762729 4.996642
O 0.256259 1.676740 7.640612
P 3.845258 1.636787 4.156145
P 1.372068 4.858252 5.144763
Fe 4.106787 4.810426 3.569323
Fe 1.110539 1.588961 5.731585
