40

O 3.664920 3.490661 11.499121
O 5.041122 0.323003 13.734966
O 5.944793 2.391946 12.306471
O 5.769230 5.277654 14.353112
O 1.476191 4.932815 4.782925
O 0.572513 2.863854 6.211408
O 0.748077 -0.021854 4.164767
O 0.597018 1.168261 7.422524
O 0.264961 5.531941 13.987692
O 2.086016 2.486727 4.077405
O 1.644416 5.629083 11.392464
O 1.900162 3.440576 8.804486
O 1.184033 3.539278 12.443901
O 3.754670 4.327932 4.197469
O 1.499829 1.447570 10.003672
O 2.852393 1.765144 7.018763
O 1.416023 3.662774 14.901715
O 6.252359 -0.276131 4.530198
O 2.887769 5.298179 14.469364
O 5.101290 1.593031 3.616182
O 5.920288 4.087538 11.095367
O 5.017491 3.808240 8.514219
O 2.762637 0.927868 14.320409
O 5.333280 1.716520 6.073980
O 4.617152 1.815236 9.713401
O 4.872904 -0.373279 7.125423
O 4.431297 2.769078 14.440479
O 3.629544 -0.042374 4.048520
P 1.446668 4.573505 13.915259
P 5.070659 0.682304 4.602634
P 5.738410 4.826017 9.916075
P 4.985966 2.899454 11.152714
P 2.215215 3.872391 3.909103
P 1.531354 2.356343 7.365170
P 0.778897 0.429789 8.601807
P 4.302098 1.383414 14.608794
Mo 4.808076 4.787004 15.596723
Mo 4.983992 1.721290 7.872524
Mo 1.533315 3.534516 10.645358
Mo 1.709244 0.468799 2.921164
