21

V 0.420344 1.170868 1.214118
V 3.220501 9.158458 1.852656
V 1.050067 4.245595 2.711039
V 2.590614 6.083979 0.355112
V 1.227841 1.111905 4.108380
V 2.412899 9.217122 -1.041925
O 0.670011 9.764889 0.011132
O 2.970681 0.563962 3.055242
O 0.388495 2.741301 0.717882
O 3.252288 7.587974 2.348721
O 0.892791 5.942866 1.736556
O 2.747890 4.387007 1.329530
O 1.329308 9.571307 2.409776
O 2.311428 0.757813 0.656681
O 0.957877 2.285602 2.859496
O 2.682823 8.043683 0.206784
O 1.442411 4.840558 3.965389
O 2.198278 5.489275 -0.899289
O 1.590097 2.244174 5.124725
O 2.050654 8.084760 -2.058208
O 0.000047 10.329369 -2.516028
