14

Li 0.733692 1.002237 1.177696
Li 5.135806 7.015636 8.243853
O 4.324970 5.908020 4.798076
O 4.324970 5.908020 6.942320
O 1.544527 2.109859 4.623464
O 1.544527 4.384173 3.237330
O 1.544527 2.109859 2.479225
O 4.170673 3.422932 3.792298
O 4.324976 3.633703 6.184221
O 1.698825 4.594947 5.629252
Cu 2.934740 4.008940 4.710770
Cu 2.934752 1.467376 3.863586
Cu 0.000006 2.541573 3.243403
Cu 2.934740 4.008940 2.314560
