44

Li 2.693696 -0.234462 5.740156
Li 0.847227 1.449136 11.954507
Li 5.702906 4.075346 6.905322
Li 3.856443 5.758943 13.119701
O 2.017349 3.570693 8.827590
O 4.754401 -0.346617 7.249518
O 5.263988 0.502275 14.213101
O 3.579857 0.133455 4.337605
O 0.415449 5.714334 14.208874
O 1.795725 5.871107 11.610336
O 1.286145 5.022201 4.646737
O 2.970276 5.391028 14.522250
O 0.620350 2.874755 6.254867
O 1.179699 3.591929 12.637305
O 1.550154 3.778175 15.097452
O 6.134684 -0.189852 4.650968
O 3.744200 4.528503 4.431855
O 2.063986 2.628405 4.153863
O 0.621044 1.292819 7.630214
O 3.739700 3.852132 11.789232
O 5.813537 5.547096 14.556745
O 1.392368 1.529024 10.235638
O 5.929783 2.649734 12.604978
O 0.736589 -0.022600 4.303099
O 2.810433 1.672351 7.070609
O 5.929082 4.231671 11.229628
O 4.486146 2.896077 14.705965
O 2.805933 0.995979 14.427987
O 4.532783 1.953789 10.032251
O 4.999978 1.746307 3.762389
O 5.370434 1.932554 6.222537
O 5.157764 3.995459 8.624204
P 5.023853 0.869466 4.790932
P 4.332395 1.521496 14.879128
P 4.979647 3.093079 11.409138
P 0.771992 0.523768 8.777028
P 1.526279 4.655017 14.068909
P 2.217737 4.002986 3.980714
P 5.778134 5.000722 10.082814
P 1.570486 2.431404 7.450704
Mo 1.534369 3.695316 10.717425
Mo 4.866441 4.943723 15.927957
Mo 1.683692 0.580753 2.931882
Mo 5.015764 1.829166 8.142417
