22

O 1.430422 0.896595 4.907853
O 0.736489 2.874946 4.487164
O 0.720286 1.669777 1.983458
O 3.641867 9.075911 1.404165
O 1.612069 5.630221 4.184227
O 2.071328 4.526714 1.701293
O 1.242342 6.522235 1.230554
O 3.396046 4.530589 -0.768127
O 4.207445 6.970744 2.339621
O 6.361150 4.979098 0.340939
O 5.532164 6.974619 -0.129799
O 5.991422 5.871112 -2.612734
O 3.961624 2.425422 0.167328
O 6.883205 9.831556 -0.411965
O 6.867002 8.626387 -2.915670
O 6.173070 10.604738 -3.336359
Pr 1.244509 2.733706 0.113592
Pr 6.358983 8.767628 1.457901
W 1.414660 1.581970 3.417088
W 1.992974 6.071261 2.694911
W 5.610518 5.430072 -1.123418
W 6.188832 9.919363 -1.845595
