38

O 4.196958 6.227512 4.826498
O 6.961646 1.556534 0.652013
O 7.178949 6.271706 2.573695
O 6.248508 4.478440 1.098335
O 6.907553 1.503225 3.796701
O 5.013673 0.269049 -0.102704
O 8.223185 3.432079 3.027384
O 6.375595 7.086530 0.510115
O 0.341179 5.008248 3.223195
O 2.188769 1.353798 5.740464
O 0.080317 2.681200 1.514729
O 1.602718 6.883793 5.598566
O 1.385414 2.168621 3.676884
O 2.315855 3.961887 5.152245
O 5.881731 8.398594 4.633223
O 3.550691 8.171278 6.353283
O 2.682633 0.041734 1.617357
O 2.275851 4.334229 1.690646
O 3.995601 2.258161 4.252859
O 1.656810 6.937102 2.453878
O 4.367406 2.212815 1.424081
O 4.568763 6.182166 1.997721
O 6.288512 4.106099 4.559933
O 8.484047 5.759127 4.735850
P 2.349556 2.315528 4.706158
P 1.023613 5.587397 2.134048
P 2.961668 7.497384 5.269824
P 5.602695 0.942943 0.980755
P 7.540751 2.852930 4.116531
P 6.214807 6.124799 1.544421
Cu 6.368760 6.276523 4.688178
Cu 7.998105 3.164350 0.657316
Cu 4.331453 4.268721 1.552846
Cu 5.284666 0.490209 3.813901
Cu 3.279697 7.950118 2.436679
Cu 4.232911 4.171606 4.697733
Cu 2.195603 2.163805 1.562401
Cu 0.566259 5.275977 5.593263
