72

Li 0.000000 0.057128 2.422609
Li 0.000000 8.296213 7.267827
Li 6.524760 4.119542 7.267827
Li 6.524760 4.233799 2.422609
O 4.793415 7.279669 8.524570
O 11.722449 7.579437 6.037481
O 12.060262 4.540016 8.506497
O 12.060262 3.813325 3.661289
O 0.846183 1.519297 6.084654
O 0.846183 6.834035 1.239436
O 0.989258 3.813325 1.183939
O 0.989258 4.540016 6.029156
O 1.327071 0.773904 3.652955
O 1.327071 7.579437 8.498173
O 1.731332 3.102999 8.524570
O 1.731332 5.250342 3.679352
O 2.314424 2.936291 4.533011
O 2.314424 5.417050 9.378239
O 3.111971 0.775800 5.519372
O 3.111971 7.577541 0.674154
O 3.412789 3.400871 0.674154
O 3.412789 4.952470 5.519372
O 4.210336 1.240379 9.378239
O 4.210336 7.112962 4.533011
O 4.793415 1.073672 3.679352
O 12.203337 6.834035 3.605782
O 5.197689 3.402767 8.498173
O 5.197689 4.950574 3.652955
O 5.535515 0.363345 6.029156
O 5.535515 7.989996 1.183939
O 5.678577 2.657365 1.239436
O 5.678577 5.695968 6.084654
O 7.370943 2.657365 3.605782
O 7.370943 5.695968 8.451010
O 7.514018 0.363345 8.506497
O 7.514018 7.989996 3.661289
O 7.851831 3.402767 6.037481
O 7.851831 4.950574 1.192263
O 8.256105 1.073672 1.165856
O 8.256105 7.279669 6.011074
O 8.839170 1.240379 5.157415
O 8.839170 7.112962 0.312197
O 9.636718 3.400871 4.171074
O 9.636718 4.952470 9.016282
O 9.937548 0.775800 9.016282
O 9.937548 7.577541 4.171074
O 10.735096 2.936291 0.312197
O 10.735096 5.417050 5.157415
O 11.318175 3.102999 6.011074
O 11.318175 5.250342 1.165856
O 11.722449 0.773904 1.192263
O 12.203337 1.519297 8.451010
P 11.268012 6.901054 4.806146
P 11.268012 1.452287 9.651354
P 11.033578 4.461286 9.608280
P 11.033578 3.892056 4.763053
P 1.781507 1.452287 4.884299
P 1.781507 6.901054 0.039072
P 2.015942 3.892056 0.082165
P 2.015942 4.461286 4.927383
P 4.508818 0.284615 4.927383
P 4.508818 8.068726 0.082165
P 8.540702 8.068726 4.763053
P 4.743252 5.628957 4.884299
P 8.306280 2.724384 4.806146
P 8.306280 5.628957 9.651354
P 8.540702 0.284615 9.608280
P 4.743252 2.724384 0.039072
Mo 0.000000 3.102406 7.267827
Mo 0.000000 5.250935 2.422609
Mo 6.524760 1.074265 2.422609
Mo 6.524760 7.279076 7.267827
