14

Li 2.408020 0.904989 3.573095
Li 1.017547 4.349512 2.765837
O 4.476716 -0.596851 3.474578
O 3.951072 4.534025 7.478859
O 4.756259 2.407860 6.603152
O 1.449541 2.114427 5.094378
O 4.136169 2.629600 4.113259
O 1.210464 5.197266 5.662136
O 0.776723 2.233256 2.585193
O 1.788926 0.169420 1.677194
P 0.736202 1.345269 1.430727
P 4.907398 3.325104 7.750599
Cr 2.962456 3.837282 5.258212
Cr 4.352945 0.392821 6.065459
