14

O 1.255904 3.984936 -1.865243
O 3.678975 3.926895 -3.251162
O 3.418940 0.596586 0.658825
O 3.320658 3.111052 -0.960644
O 1.472078 0.626423 4.876559
O 1.732114 3.956732 0.966572
O 1.830396 1.442266 2.586041
O 3.895150 0.568382 3.490640
F 0.768125 1.557015 0.531107
F 4.382929 2.996303 1.094290
P 2.243361 0.317395 3.646349
P 2.907693 4.235923 -2.020952
Mn 0.000000 0.000000 0.000000
Mn 2.575527 2.276659 0.812699
