32

Li 0.000000 3.327209 0.000000
Li 0.000000 0.000000 0.000000
Li 3.740370 0.000000 3.769341
Li 3.740370 3.327209 3.769341
Mo 2.668941 4.990814 1.727858
Mo 1.071429 1.663605 5.497199
Mo 4.811799 1.663605 5.810824
Mo 6.409311 4.990814 2.041483
P 0.952530 4.990814 4.776396
P 4.692900 4.990814 6.531627
P 2.787840 1.663605 1.007055
P 6.528210 1.663605 2.762286
O 4.726452 3.756133 5.592096
O 1.519481 1.663605 0.094852
O 6.719792 1.663605 6.223393
O 0.986081 6.225494 5.715927
O 6.494659 2.898285 1.822755
O 4.501319 4.990814 2.454052
O 4.091569 1.663605 0.189583
O 5.259851 1.663605 3.674489
O 4.726452 6.225494 5.592096
O 2.220890 4.990814 3.864193
O 6.494659 0.428924 1.822755
O 0.986081 3.756133 5.715927
O 2.754289 2.898285 1.946586
O 0.351198 1.663605 3.579758
O 0.760948 4.990814 1.315289
O 3.389172 4.990814 7.349099
O 7.129542 4.990814 3.958924
O 5.961260 4.990814 7.443830
O 2.979422 1.663605 5.084630
O 2.754289 0.428924 1.946586
