42

Li 1.080509 6.904542 1.977088
Li 1.734607 2.987826 2.551076
Li 3.656559 3.882281 -1.615052
Li 6.075399 -0.747032 4.363520
Li 5.181076 0.140383 0.976274
Li 7.552616 3.595795 -3.680135
O 0.209438 0.600350 5.141764
O 7.707302 2.433081 -2.166849
O 6.519043 -1.215935 0.775558
O 8.243056 5.376195 -3.460891
O 8.149108 0.011458 3.790509
O 7.757354 2.930680 -0.067067
O 2.509325 7.146028 3.089279
O 0.726047 3.054418 4.105675
O 6.294863 -1.644193 -1.325196
O 2.339541 6.683535 0.529994
O 0.206550 2.256336 1.581877
O 0.692100 5.815796 -2.514884
O 3.021725 4.666446 1.866857
O 2.652978 4.491488 -0.237324
O 3.130119 1.619406 2.826660
O 5.510686 1.378062 -0.546514
O 3.417137 5.231678 -2.952651
O 5.442505 3.198827 3.168650
O 2.423218 2.149731 -1.715480
O 4.906708 0.799167 4.341649
O 2.991022 -0.678901 1.150294
O 5.806688 3.851035 -1.373224
O 5.807298 1.187533 2.153674
O 5.013553 5.947898 0.192858
P 7.419539 -1.435331 -0.397849
P 6.707024 2.626629 -1.028112
P 4.802616 1.713552 3.135470
P 2.393006 6.392745 -2.968937
P 3.264001 5.456286 0.564900
P 0.772542 2.061619 5.281420
Ni 0.553714 3.511411 0.050698
Ni 4.583779 4.954993 2.927725
Ni 1.994461 -0.054968 2.539515
Ni 6.587173 5.630773 -1.075082
Ni 3.842288 0.781105 -1.434306
Ni 7.907925 2.065533 1.598342
