40

Li 3.291297 4.312564 14.312093
Li 3.288725 4.309194 8.022934
Li 0.001809 0.002371 9.457633
Li 1.598753 2.094835 11.007547
Li 4.888240 6.405029 15.862007
Li 1.601325 2.098206 17.296707
Fe 0.004587 0.006010 6.323838
Fe 0.000000 0.000000 3.148114
Fe 4.885463 6.401390 18.995803
Fe 0.000000 0.000000 12.592438
P 1.717938 2.251003 14.183898
P 3.185608 4.174081 17.433193
P 3.172112 4.156397 11.135742
P 1.704441 2.233318 7.886467
P 3.187075 4.176004 4.812103
P 1.702974 2.231396 1.618909
O 3.729269 2.801328 11.207765
O 3.732697 2.811644 17.521346
O 3.424257 2.401673 14.124511
O 3.747221 4.909958 18.665214
O 1.142829 1.497441 6.654426
O 1.157352 3.595755 7.798294
O 1.155949 1.514632 2.835276
O 3.716203 4.869316 12.412104
O 3.689474 4.834293 6.122978
O 1.160780 3.606072 14.111875
O 3.414507 2.394721 7.810894
O 1.097410 3.580338 1.644041
O 3.792639 2.827062 4.786971
O 3.659967 4.795631 9.872071
O 1.200576 1.573106 0.308034
O 1.466961 4.064558 4.773989
O 1.475543 4.012679 17.508746
O 1.173847 1.538084 12.907537
O 3.423089 2.342842 1.657023
O 1.465792 4.005727 11.195130
O 3.648407 4.780484 16.141083
O 1.230082 1.611769 15.447570
O 3.734101 4.892767 3.595717
O 1.241642 1.626916 9.178557
