76

Li 6.894483 2.713050 9.137863
Li 2.181035 2.136202 10.718222
Li 7.245861 2.713050 4.099527
Li 2.532413 2.136202 2.519168
Li 2.532413 6.985454 4.099527
Li 7.245861 7.562302 2.519168
Li 2.181035 6.985454 9.137863
Li 6.894483 7.562302 10.718222
O 6.841438 1.701428 10.865488
O 2.127990 3.147824 8.990597
O 7.298906 1.701428 2.371902
O 2.585458 3.147824 4.246793
O 2.585458 7.997076 2.371902
O 7.298906 6.550680 4.246793
O 2.127990 7.997076 10.865488
O 6.841438 6.550680 8.990597
O 8.763365 1.370641 13.038736
O 4.049917 3.478611 6.817349
O 5.376979 1.370641 0.198654
O 0.663531 3.478611 6.420041
O 0.663531 8.327863 0.198654
O 5.376979 6.219893 6.420041
O 4.049917 8.327863 13.038736
O 8.763365 6.219893 6.817349
O 5.900954 4.229236 12.393784
O 1.187506 0.620016 7.462301
O 8.239390 4.229236 0.843606
O 3.525942 0.620016 5.775089
O 3.525942 5.469268 0.843606
O 8.239390 9.078489 5.775089
O 1.187506 5.469268 12.393784
O 5.900954 9.078489 7.462301
O 0.305365 1.653440 10.328699
O 5.018814 3.195812 9.527386
O 4.408083 1.653440 2.908691
O 9.121531 3.195812 3.710004
O 9.121531 8.045065 2.908691
O 4.408083 6.502692 3.710004
O 5.018814 8.045065 10.328699
O 0.305365 6.502692 9.527386
O 7.875719 1.483076 7.853730
O 3.162271 3.366176 12.002355
O 6.264625 1.483076 5.383660
O 1.551177 3.366176 1.235035
O 1.551177 8.215428 5.383660
O 6.264625 6.332328 1.235035
O 3.162271 8.215428 7.853730
O 7.875719 6.332328 12.002355
O 8.350807 4.021456 8.758519
O 3.637359 0.827796 11.097566
O 5.789538 4.021456 4.478871
O 1.076090 0.827796 2.139824
O 1.076090 5.677049 4.478871
O 5.789538 8.870708 2.139824
O 3.637359 5.677049 8.758519
O 8.350807 8.870708 11.097566
Fe 5.024055 2.457038 11.637082
Fe 0.310607 2.392214 8.219003
Fe 9.116290 2.457038 1.600308
Fe 4.402841 2.392214 5.018387
Fe 4.402841 7.241466 1.600308
Fe 9.116290 7.306291 5.018387
Fe 0.310607 7.241466 11.637082
Fe 5.024055 7.306291 8.219003
Mo 8.421772 0.961393 11.350175
Mo 3.708324 3.887859 8.505910
Mo 5.718572 0.961393 1.887215
Mo 1.005124 3.887859 4.731480
Mo 1.005124 8.737111 1.887215
Mo 5.718572 5.810645 4.731480
Mo 3.708324 8.737111 11.350175
Mo 8.421772 5.810645 8.505910
Mo 7.070172 0.405281 6.618695
Mo 2.356724 4.443971 0.000000
Mo 2.356724 9.293223 6.618695
Mo 7.070172 5.254533 0.000000
