48

Li 1.855616 2.736084 13.119976
Li 5.242286 7.363071 6.561455
Li 1.913068 2.613700 9.894124
Li 5.268161 7.197545 9.921156
Li 2.061770 2.816863 3.309515
Li 5.416863 7.400708 3.336547
Li 2.087645 2.651337 6.669216
Li 5.474315 7.278324 0.110695
O 0.643443 5.916313 8.313986
O 0.868084 6.223225 1.729989
O 2.831465 6.849229 6.758533
O 1.055415 4.422728 0.158417
O 1.157455 4.323803 10.052978
O 3.004722 6.847604 3.482054
O 3.282666 6.539030 9.230059
O 1.674567 4.341989 2.631295
O 2.131141 4.198638 7.671269
O 5.017294 8.159240 11.688421
O 3.712200 6.358736 1.098200
O 0.805904 2.405492 5.068683
O 1.118606 1.834413 11.487855
O 5.857715 8.309149 4.940230
O 1.472217 1.705259 8.290441
O 6.211325 8.179995 1.742817
O 6.524028 7.608916 8.161988
O 3.617732 3.655672 12.132471
O 2.312637 1.855168 1.542250
O 5.198791 5.815770 5.559402
O 5.655365 5.672419 10.599376
O 4.047266 3.475378 4.000612
O 4.325209 3.166804 9.748618
O 6.172477 5.690605 3.177694
O 6.274517 5.591680 13.072255
O 4.498467 3.165178 6.472138
O 6.461848 3.791183 11.500682
O 6.686488 4.098095 4.916685
P 2.146417 6.896931 8.198966
P 0.604280 4.790010 1.600734
P 0.765018 4.536073 8.567140
P 2.532660 6.951087 1.995575
P 4.797272 3.063321 11.235097
P 6.564914 5.478335 4.663531
P 6.725652 5.224398 11.629938
P 5.183515 3.117477 5.031705
Sn 2.438668 5.391591 11.641916
Sn 2.512026 5.491816 5.056700
Sn 4.817905 4.522592 8.173972
Sn 4.891263 4.622816 1.588755
