68

Co 3.502321 1.268245 4.857198
Co 6.582248 3.592369 4.996817
Co 5.104638 6.176598 5.570600
Co 9.441253 1.374787 5.428725
Co 0.256008 8.228835 7.931369
Co 3.115012 6.011253 8.363276
Co 8.350951 3.533566 11.537245
Co 1.346310 6.070056 1.822849
Co 4.592623 3.427024 7.789493
Co 1.733618 1.209442 7.357586
Co 6.194940 8.335377 8.502895
Co 7.963643 8.394180 6.002508
P 8.109654 6.378438 4.185950
P 3.252374 4.182915 3.765446
P 6.683449 0.802114 3.650250
P 6.444887 5.420707 9.594647
P 1.587606 3.225184 9.174143
P 7.862442 5.603925 7.349075
P 6.436237 1.576627 6.813374
P 3.013812 8.801508 9.709844
P 3.261024 8.026995 6.546719
P 8.101004 0.618896 10.445493
P 1.834819 3.999697 6.011018
P 1.596256 8.984726 2.914600
O 3.464007 7.413890 5.314124
O 6.233254 2.189731 8.045969
O 4.480454 9.244187 9.270205
O 9.588962 0.126067 11.077165
O 0.187128 2.704812 8.324441
O 2.030403 2.452957 5.930526
O 7.742099 5.059255 8.702025
O 0.108299 9.477555 2.282928
O 3.184726 4.645445 6.767369
O 3.350539 2.673485 3.615751
O 5.035758 2.096999 5.963672
O 7.739335 2.244126 6.175911
O 6.848555 4.627294 10.742681
O 1.663904 9.447256 8.953492
O 4.661502 7.506623 7.396421
O 9.329085 5.161246 6.909437
O 6.803792 0.257444 11.338115
O 1.955162 4.544367 4.658068
O 0.368176 4.442376 6.450656
O 4.956929 4.927878 8.962975
O 3.134339 9.565400 6.492082
O 7.982969 4.840033 4.131313
O 6.512535 4.958177 6.592724
O 2.890705 2.557685 8.536680
O 6.806556 7.045937 4.823414
O 8.199170 2.128326 10.295798
O 7.666858 7.150665 7.429567
O 6.346721 6.930137 9.744342
O 7.697336 9.429105 9.297459
O 6.562922 0.038222 6.868011
O 2.818228 7.254768 9.790336
O 1.714291 4.763589 9.228780
O 8.312637 6.991542 11.994171
O 1.498091 7.475296 3.064295
O 8.033356 0.156366 4.406601
O 5.216806 0.359435 4.089888
O 9.510133 6.898810 5.035652
O 1.957925 7.359496 7.184182
O 2.893469 9.346178 2.021978
O 6.879033 2.348854 3.569757
O 4.740331 4.675744 4.397118
O 1.384623 2.612080 1.365922
O 1.999924 0.174517 4.062634
O 2.848706 4.976328 2.617413
