24

O 1.185566 2.676623 3.299275
O 3.628772 3.230616 1.688849
O 3.700846 5.630242 6.676974
O 1.257640 0.276996 8.287400
O 3.700846 3.230616 6.676974
O 1.257640 2.676623 8.287400
O 1.185566 0.276996 3.299275
O 3.628772 5.630242 1.688849
O 1.400553 4.430429 1.226001
O 3.843759 1.476810 3.762123
O 3.485859 1.476810 8.750248
O 1.042653 4.430429 6.214126
O 4.154125 4.430429 4.446514
O 1.710919 1.476810 0.541611
O 0.732287 1.476810 5.529735
O 3.175494 4.430429 9.434639
P 4.426532 4.430429 5.949257
P 1.983326 1.476810 9.015118
P 0.459880 1.476810 4.026993
P 2.903086 4.430429 0.961132
Fe 2.231053 4.430429 7.732391
Fe 4.674259 1.476810 7.231983
Fe 2.655359 1.476810 2.243858
Fe 0.212153 4.430429 2.744267
