58

O 0.011001 2.152114 9.804798
O 0.647894 1.400379 0.354000
O 0.461256 2.775732 3.046125
O 1.275748 0.957522 5.858714
O 8.444503 8.212262 3.592097
O 0.280900 5.296039 11.700380
O 1.372690 2.908216 7.430999
O 2.225935 0.589816 8.833305
O 1.844473 4.343499 9.910886
O 2.750446 1.161041 3.166576
O 2.642029 2.012879 11.207116
O 2.293452 3.098212 5.063326
O 1.527189 6.757336 10.122913
O 2.590696 2.888558 1.149375
O 2.205785 4.856747 2.897765
O 1.868639 7.175887 2.302489
O 2.216075 6.544287 4.743509
O 2.274951 6.616446 7.681893
O 4.001394 2.822113 8.727217
O 4.435592 3.283967 3.314936
O 3.046219 8.685648 0.725022
O 5.409276 1.678734 6.937711
O 4.019903 7.080423 9.527637
O 4.454093 7.542258 2.514504
O 6.229569 9.774568 2.620604
O 6.180544 3.747936 1.469192
O 6.239412 3.820101 10.956198
O 6.586848 3.188501 8.515190
O 6.249702 5.507624 9.110454
O 7.807610 8.963996 6.566688
O 6.928315 3.607040 3.910199
O 6.162035 7.266160 11.276027
O 5.813457 8.351509 4.994403
O 5.705050 9.203340 9.379277
O 6.611022 6.020874 3.698197
O 7.082805 7.456173 1.218286
O 8.174604 5.068345 5.487691
O 7.179747 9.406860 12.071402
O 7.994248 7.588660 9.258825
O 5.864799 7.475815 7.362075
P 1.262828 2.429878 6.017423
P 0.798850 5.361979 10.182194
P 2.176250 1.785595 0.195278
P 1.539298 6.079981 3.434257
P 2.573430 7.347576 8.991157
P 3.117507 8.204089 2.243208
P 5.337988 2.160293 8.455908
P 5.882065 3.016814 2.778444
P 6.916198 4.284400 9.646958
P 7.192667 7.934503 12.230112
P 7.656637 5.002409 3.969493
P 6.279254 8.578788 6.407991
V 2.007301 2.460455 9.319051
V 1.213685 7.308171 6.212701
V 2.469656 3.027198 3.106350
V 5.985840 7.337176 9.319051
V 7.241819 3.056221 0.000000
V 6.448195 7.903919 3.106350
