36

Li 2.283993 3.664715 4.789337
Li 2.910459 5.207817 6.780434
O 1.930714 8.940565 5.219867
O 5.172199 4.258065 1.887255
O 0.022248 8.681599 7.065773
O 0.022253 4.614467 9.682505
O 5.194447 0.911865 6.798599
O 0.000005 7.960677 4.771165
O 1.256698 6.563977 10.894869
O 1.256698 9.225911 9.182218
O 1.668664 4.087238 7.552294
O 1.668664 6.481359 6.011941
O 3.599264 8.365976 7.818346
O 1.930709 2.437565 9.403818
O 3.161185 7.909295 10.201734
O 1.595189 0.506555 3.751414
O 3.937744 2.308558 0.674895
O 3.599264 5.221190 9.841667
O 5.172194 0.190946 4.503994
O 2.033268 0.963257 1.368033
O 3.263739 -0.068023 6.349887
O 3.263734 6.434980 2.165949
O 3.525788 2.391193 5.557817
O 3.525788 4.785304 4.017479
O 3.937755 -0.353369 2.387546
O 1.595189 3.651352 1.728096
P 2.418436 2.443498 0.860933
P 4.289876 0.944177 5.683032
P 0.904577 3.548366 8.704751
P 0.904571 7.928356 5.886730
P 2.776006 6.429058 10.708837
P 2.776011 8.952378 9.085376
P 2.418441 -0.079826 2.484391
P 4.289876 5.324166 2.865009
Cr 5.194442 3.673314 9.968402
Cr 5.194442 -1.525918 3.420559
