38

Cr 0.208612 6.560716 1.111853
Cr 7.406091 1.021580 0.035444
Cr 1.988130 7.279143 3.440837
Cr 5.626573 0.303145 -2.293537
Cr 2.027818 4.250948 4.775098
Cr 5.586885 3.331348 -3.627801
Cr 2.248614 4.817543 -0.729251
Cr 5.366089 2.764753 1.876548
P 0.231205 2.106524 6.867207
P 7.383498 5.475772 -5.719910
P 2.380844 4.385545 2.037282
P 5.233860 3.196752 -0.889985
P 3.020631 1.041929 4.170214
P 4.594072 6.540367 -3.022917
O 0.900614 5.973672 5.111147
O 6.714089 1.608624 -3.963851
O 0.860423 0.737130 7.009400
O 6.754280 6.845166 -5.862103
O 2.287388 5.277219 3.047368
O 5.327315 2.305077 -1.900071
O 1.220972 3.056589 2.468965
O 6.393731 4.525707 -1.321669
O 1.440093 0.422483 4.058554
O 6.174610 7.159813 -2.911257
O 0.466888 5.854016 -0.862219
O 7.147815 1.728280 2.009516
O 1.986592 5.352992 0.935789
O 5.628111 2.229304 0.211507
O 3.053427 2.556104 4.434893
O 4.561276 5.026192 -3.287596
O 3.414989 0.030234 5.194951
O 4.199714 7.552063 -4.047654
O 1.474877 3.461048 -1.679522
O 6.139826 4.121249 2.826819
O 3.970603 4.078362 1.628662
O 3.644100 3.503934 -0.481365
O 4.163407 1.130637 2.968665
O 3.451296 6.451667 -1.821372
