16

Li 4.790695 2.370374 -2.320786
Li 0.422509 2.208933 3.946022
O 3.734651 3.948910 -3.333360
O 3.387937 3.147508 -1.061365
O 1.825268 1.431799 2.686601
O 3.322396 0.470694 0.715213
O 1.478553 0.630398 4.958596
O 1.890809 4.108614 0.910023
O 1.245862 3.958666 -1.961040
O 3.967343 0.620642 3.586277
F 0.699649 1.680434 0.497575
F 4.513556 2.898874 1.127661
P 2.298716 0.321616 3.732277
P 2.914489 4.257691 -2.107041
Fe 0.000000 0.000000 0.000000
Fe 2.606602 2.289654 0.812618
