44

Li 5.409498 1.002447 1.674802
Li 5.409498 3.005995 6.166663
Li 1.392977 5.010889 -0.306773
Li 1.392977 7.014437 4.185088
Co 4.887973 6.215025 -2.208477
Co 4.887973 5.810301 2.283384
Co 1.914502 2.206583 3.576506
Co 1.914502 1.801859 8.068367
P 3.172872 4.682887 4.872292
P 3.629603 0.674444 5.479459
P 3.172872 7.342440 0.380431
P 6.433393 4.309989 -0.305824
P 0.369082 0.301563 1.673853
P 3.629603 3.333998 0.987598
P 6.433393 7.715337 4.186037
P 0.369082 3.706879 6.165714
O 0.418155 2.552191 5.211145
O 6.192239 7.317587 2.834733
O 0.610236 3.309145 7.517018
O 3.483541 1.874484 6.390286
O 3.318934 5.882926 3.961466
O 1.562066 7.193278 1.157724
O 5.240409 3.184836 0.210305
O 2.641319 0.690117 4.463993
O 1.011712 3.511924 2.698948
O 1.562066 4.832049 5.649585
O 6.192239 4.707739 -1.657128
O 6.384320 6.560633 5.140607
O 3.269882 3.330214 4.215206
O 4.161156 7.326767 1.395897
O 5.240409 0.823607 4.702166
O 3.318934 6.142400 -0.530395
O 3.532593 7.338656 6.136545
O 1.011712 0.496518 7.190809
O 5.790763 4.504960 3.160943
O 0.418155 1.456251 0.719284
O 3.269882 0.678228 -0.276655
O 3.483541 2.133958 1.898424
O 3.532593 4.686671 1.644684
O 4.161156 4.698560 5.887758
O 6.384320 5.464693 0.648745
O 0.610236 0.699297 3.025157
O 2.641319 3.318325 -0.027868
O 5.790763 7.520366 -1.330919
