46

Li 5.217400 0.650671 3.451091
Li 2.189692 7.282407 2.290735
Li 5.217400 3.315868 -1.092788
Li 2.189692 4.617210 6.834614
Fe 5.975138 0.976491 6.192109
Fe 1.431954 6.956588 -0.450283
Fe 5.975138 2.990049 1.648230
Fe 1.431954 4.943030 4.093596
Fe 0.000000 0.000000 4.543879
Fe 0.000000 3.966539 0.000000
P 2.985606 4.364312 1.215862
P 6.523692 6.299547 -1.183195
P 4.421486 3.568767 4.525964
P 6.523692 5.600071 3.360685
P 0.883399 1.633532 6.925021
P 4.421486 0.397772 -0.017915
P 2.985606 7.535306 5.759741
P 0.883399 2.333007 2.381141
O 7.345857 1.664423 2.507418
O 4.530170 4.003333 0.677732
O 1.161484 0.977093 2.941542
O 2.876922 0.036794 0.520215
O 6.245608 4.943633 -1.743595
O 2.093200 4.826572 0.188757
O 5.313892 3.106506 5.553069
O 6.245608 6.955985 2.800284
O 2.385424 1.061121 6.273707
O 5.021667 6.871958 -0.531881
O 5.313892 0.860033 1.009190
O 0.263455 3.320374 3.425536
O 0.061234 6.268655 3.234408
O 0.061234 5.630963 7.778287
O 2.876922 3.929746 5.064094
O 4.579782 2.605778 3.401669
O 4.579782 1.360761 -1.142210
O 7.143636 4.612704 2.316290
O 7.345857 2.302116 -2.036461
O 5.021667 5.027660 4.011998
O 2.385424 2.905419 1.729828
O 0.263455 0.646165 7.969415
O 1.161484 2.989446 7.485421
O 7.143636 7.286913 -2.227589
O 4.530170 7.896285 5.221611
O 2.827309 6.572318 6.884036
O 2.827309 5.327300 2.340157
O 2.093200 7.073046 4.732636
