14

O 1.496414 4.230567 -2.017251
O 3.976867 4.184429 -3.216170
O 3.520482 0.657433 0.734787
O 3.432077 3.437492 -0.873025
O 1.406803 0.722051 5.189645
O 1.863198 4.249047 1.238684
O 1.951593 1.468988 2.846494
O 3.887261 0.675923 3.990726
F 0.776697 1.704902 0.611987
F 4.606972 3.201578 1.361481
P 2.287443 0.427067 3.994253
P 3.096232 4.479418 -2.020782
W 0.000000 0.000000 0.000000
W 2.691837 2.453237 0.986738
