60

Li 6.023432 0.757438 2.280489
Li 0.811744 6.912120 4.647806
Li 7.034565 6.747784 5.039911
Li 3.323434 1.710939 2.381454
Li 2.834176 6.907720 2.083592
Li 1.235789 3.654579 0.894741
Li 6.382100 5.958619 2.559554
Li 1.301001 1.706539 4.945669
Li 2.899388 8.855760 6.134520
Li 7.458611 3.490242 1.286846
Li 6.969354 8.695824 0.988983
Li 1.888254 4.443744 3.375098
Li 2.246923 9.644925 3.654163
Li 5.370967 1.546602 -0.199868
Li 5.436179 3.494643 3.851060
Li 4.946921 8.691424 3.553198
Cr 0.726733 8.779147 0.598333
Cr 4.861910 6.824397 -0.496275
Cr 7.543622 1.623216 5.336319
Cr 3.408445 3.577965 6.430927
P 3.857848 9.482523 0.870202
P 4.372752 4.231858 1.262296
P 4.412507 0.919839 5.064450
P 3.897603 6.170505 4.672356
P 0.277330 4.281342 6.159059
P 8.032781 9.433039 3.577748
P 0.237574 0.969323 2.356904
P 7.993025 6.121021 -0.224407
O 4.895198 1.574939 3.765323
O 3.375157 8.827424 2.169329
O 3.942652 9.865466 4.812218
O 8.077829 5.738078 3.717609
O 7.768733 8.660456 4.865987
O 3.633556 6.943088 5.960596
O 5.182552 6.774611 3.964040
O 1.455731 4.212614 7.174162
O 0.060564 0.547861 6.028525
O 1.047374 8.828932 5.058648
O 8.209791 9.854501 -0.093873
O 2.679446 9.413795 -0.144902
O 4.636799 3.459274 -0.025944
O 6.814624 6.189749 -1.239510
O 0.192526 4.664284 2.217043
O 7.222981 1.573430 0.876004
O 5.105381 8.666479 0.299342
O 1.562402 1.059106 3.182461
O 2.572775 6.260287 3.846800
O 4.327703 0.536897 1.122434
O 7.300151 3.465297 4.540701
O 4.074614 5.749043 1.000736
O 5.697580 4.142075 2.087852
O 0.501622 1.741907 1.068665
O 7.510334 6.776120 1.074721
O 3.087803 3.627751 1.970612
O 3.164974 1.735884 5.635309
O 5.590909 0.988568 6.079554
O 6.707952 9.343256 2.752191
O 0.970204 6.937065 1.393951
O 4.195741 4.653320 4.933916
O 0.760021 3.626243 4.859931
