16

Li 4.674896 3.572755 2.529794
Li 1.561325 3.572755 2.529794
Li 1.556785 1.731263 5.068809
Li 4.679436 1.731263 5.068809
Cu 3.118111 0.993018 2.536847
Cu 0.000000 4.311000 5.075862
P 3.118111 4.370755 0.012786
P 0.000000 0.933263 2.551802
O 0.000000 4.742561 2.109942
O 3.118111 4.262855 1.560657
O 0.000000 1.041163 4.099672
O 1.857614 3.636938 4.516157
O 1.260496 1.667079 1.977141
O 4.975725 1.667079 1.977141
O 4.378607 3.636938 4.516157
O 3.118111 0.561457 4.648957
