80

Li 0.000000 6.823423 2.777245
Li 0.000000 10.134953 7.165894
Li 3.224553 1.655765 7.748800
Li 3.224553 15.302611 2.194320
O 0.000000 5.433158 8.909333
O 5.211574 6.328205 1.053077
O 5.216289 15.543064 8.273161
O 5.216289 1.415312 1.669969
O 5.195993 11.430997 5.931157
O 5.195993 5.527379 4.011983
O 4.477672 14.006567 0.959582
O 3.224553 9.316389 6.596004
O 4.457371 9.894500 3.301596
O 4.457371 7.063876 6.641534
O 4.462091 14.807393 3.918498
O 4.462091 2.150983 6.024642
O 3.224553 13.912346 6.005372
O 3.224553 13.206234 8.779575
O 3.224553 12.591832 3.829139
O 3.224553 11.825466 0.958806
O 0.000000 0.458317 3.722161
O 0.000000 0.837201 8.318701
O 0.000000 3.346278 4.012759
O 0.000000 4.112644 1.142426
O 0.000000 4.727046 6.135120
O 5.211574 10.630171 8.890063
O 0.000000 11.525218 1.033807
O 0.000000 12.231330 3.808010
O 0.000000 12.845732 8.800704
O 0.000000 13.612098 5.930371
O 0.000000 16.121175 1.624429
O 0.000000 16.500042 6.220969
O 1.237538 6.328205 1.053077
O 1.237538 10.630171 8.890063
O 1.232824 1.415312 1.669969
O 1.232824 15.543064 8.273161
O 1.253119 5.527379 4.011983
O 1.253119 11.430997 5.931157
O 1.971434 2.951809 8.983548
O 1.971434 14.006567 0.959582
O 1.991729 7.063876 6.641534
O 1.991729 9.894500 3.301596
O 1.987021 2.150983 6.024642
O 1.987021 14.807393 3.918498
O 3.224553 3.046030 3.937758
O 3.224553 3.752142 1.163555
O 3.224553 4.366544 6.113991
O 3.224553 5.132910 8.984324
O 3.224553 7.641987 3.347136
O 3.224553 8.020854 8.693716
O 3.224553 8.937505 1.249404
O 4.477672 2.951809 8.983548
P 3.224553 14.065633 4.451678
P 3.224553 13.308289 0.387563
P 3.224553 9.067915 2.798643
P 3.224553 7.890461 7.144497
P 3.224553 3.650087 9.555567
P 3.224553 2.892743 5.491451
P 0.000000 16.369649 7.770208
P 0.000000 12.129275 5.359128
P 0.000000 11.371931 9.423243
P 0.000000 5.586445 0.519886
P 0.000000 4.829101 4.584002
P 0.000000 0.588727 2.172922
Mn 0.000000 2.273609 9.762583
Mn 0.000000 14.684767 0.180547
Mn 0.000000 15.356098 4.419304
Mn 0.000000 1.602278 5.523826
Mn 1.597753 5.163435 7.487873
Mn 1.597753 11.794941 2.455257
Mn 1.626806 3.315753 2.516308
Mn 1.626806 13.642623 7.426822
Mn 3.224553 6.205579 4.791018
Mn 3.224553 6.876910 0.552261
Mn 3.224553 10.081466 9.390869
Mn 3.224553 10.752798 5.152112
Mn 4.822306 3.315753 2.516308
Mn 4.822306 13.642623 7.426822
Mn 4.851353 5.163435 7.487873
Mn 4.851353 11.794941 2.455257
