44

O 2.378685 8.639348 2.234387
O 0.116935 2.150782 2.670931
O 4.792717 8.882839 2.617994
O 4.368890 4.216811 0.377794
O 4.874314 10.826376 7.139681
O 0.198537 4.094319 7.192617
O 0.622359 8.760347 9.432818
O 0.239161 6.825648 6.795545
O 0.301936 7.170749 1.480616
O 0.203888 12.391421 2.148752
O 1.220954 2.642824 8.827773
O 1.274670 9.131416 6.882252
O 0.692865 1.251893 0.049648
O 2.256469 0.337069 8.914478
O 1.873271 2.271768 6.277194
O 1.802764 7.740459 4.855657
O 2.297088 10.582885 8.517407
O 2.612560 4.337810 7.576227
O 2.291742 5.902842 2.756553
O 4.689314 5.806409 8.329996
O 2.797565 12.294975 6.385932
O 2.699507 7.074316 7.054059
O 4.752088 6.151510 3.015067
O 2.694162 2.394273 1.293205
O 3.188485 5.236698 4.954955
O 3.117978 10.705390 3.533418
O 2.734790 12.640089 0.896132
O 4.298379 11.725264 9.760966
O 3.716574 3.845742 2.928351
O 3.770290 10.334334 0.982851
O 4.787372 0.585737 7.661859
O 2.193694 0.682183 3.424689
P 1.513142 7.642780 6.350888
P 3.478102 5.334378 3.459726
P 3.482949 9.709419 2.486930
P 4.003925 3.220827 1.424281
P 0.982472 1.154201 9.359139
P 0.987319 9.756331 8.386343
P 1.508306 3.267739 7.323681
P 4.008777 11.822956 0.451474
Mo 4.015175 5.565838 6.880303
Mo 3.471698 12.054417 7.835615
Mo 1.519551 0.922741 1.974986
Mo 0.976079 7.411320 2.930319
