16

Li 4.775156 2.350103 -2.373326
Li 0.428154 2.196073 3.850025
O 1.821563 1.416905 2.593162
O 3.381737 3.129273 -1.116465
O 3.712662 3.899447 -3.367234
O 3.373917 0.471689 0.636309
O 1.490632 0.646720 4.843939
O 1.829394 4.074476 0.840390
O 3.971209 0.589194 3.454538
O 1.232091 3.956983 -1.977841
F 0.713951 1.650601 0.468262
F 4.489349 2.895576 1.008448
P 2.284449 0.297581 3.633296
P 2.918862 4.248596 -2.156590
Cr 0.000000 0.000000 0.000000
Cr 2.601658 2.273088 0.738355
