36

Li 6.442546 4.551027 9.946715
Li 0.575073 2.521743 1.552227
V 4.486771 5.800697 7.753500
V 2.530848 1.272073 3.745443
P 2.130184 -0.972965 5.487076
P 4.887435 8.045735 6.011867
P 5.905081 1.617109 5.338384
P 1.112538 5.455661 6.160558
P 2.288270 4.646454 4.070262
P 1.762966 10.100114 5.916841
P 4.729349 2.426316 7.428681
P 5.254653 -3.027344 5.582102
O 1.174588 9.599439 8.547592
O 7.017352 5.351039 8.424237
O 6.222417 3.009304 5.191472
O 1.714397 -0.745811 1.167089
O 2.082408 6.171069 7.028095
O 0.000267 1.721731 3.074705
O 2.411022 3.171950 4.342812
O 0.795201 4.063466 6.307471
O 4.154283 -1.572618 5.673994
O 2.006457 5.578152 5.080087
O 2.612856 -0.603639 3.105665
O 0.617024 5.034504 3.262053
O 4.935211 0.901701 4.470847
O 5.046405 6.609039 6.410217
O 2.863336 8.645388 5.824949
O 5.303222 7.818581 10.331853
O 4.606597 3.900820 7.156131
O 1.971214 0.463731 5.088726
O 3.803964 5.069694 9.154865
O 5.011162 1.494618 6.418856
O 5.843031 -2.526669 2.951350
O 3.213655 2.003076 2.344078
O 6.400595 2.038266 8.236889
O 4.404763 7.676409 8.393278
