36

Li 4.084735 2.721603 1.319250
Li 6.553560 5.854313 5.260698
O 4.719490 6.244768 1.663676
O 7.015514 8.891916 6.330576
O 1.033209 1.300926 2.313214
O 0.839838 3.071918 6.498738
O 0.085139 5.378938 4.642752
O 1.355952 5.373494 6.904592
O 2.897759 1.718745 5.206324
O 0.571319 6.751810 1.755811
O 1.100222 7.422938 5.655343
O 2.896858 3.810871 0.282496
O 3.047933 4.123717 5.515664
O 3.516068 3.170857 3.199825
O 2.823310 7.235436 3.048192
O 2.384956 8.297194 0.804338
O 7.452357 4.804608 3.665903
O 5.244221 2.866899 5.035295
O 5.499557 2.326686 7.511814
O 4.998538 6.477708 4.216011
O 6.722118 2.784153 2.421557
O 5.885407 6.177328 7.139123
O 7.385287 3.625654 6.323991
O 5.078895 8.450888 2.702225
O 6.794781 4.834416 1.180693
O 7.208869 7.189144 1.411368
P 4.508202 7.098157 3.007965
P 6.168924 6.198482 0.805510
P 0.388816 6.128362 5.874704
P 2.074528 4.010049 6.843486
P 3.590235 2.926365 4.637897
P 7.474276 4.087555 2.381237
P 6.264480 2.552435 6.243202
P 1.696676 7.787916 2.014858
Cu 6.948292 8.814090 2.164623
Cu 1.092537 1.383681 5.926205
