52

Li 0.653859 3.115555 2.982198
Li 3.247953 7.337354 9.750731
Li 4.765636 1.198254 5.467972
Li 4.731807 1.083641 0.274728
Li 6.939823 5.420053 6.932197
Li 6.973652 5.305431 1.805993
O 1.911025 7.366881 7.852876
O 7.362390 7.153267 5.716720
O 6.743226 6.809318 3.288621
O 6.600412 3.558708 2.505634
O 6.917996 6.717747 8.459663
O 6.660055 3.551742 7.457994
O 0.546013 1.278764 9.387568
O 0.461913 1.252909 4.253659
O 0.871019 1.704134 6.688630
O 1.162859 4.979813 7.446832
O 0.921813 1.670858 1.543561
O 1.113876 4.830024 2.271819
O 7.378107 7.204883 0.568967
O 2.099569 3.041285 9.995935
O 1.802250 7.263084 2.736994
O 1.990794 3.145082 4.880043
O 2.738960 0.758023 5.286087
O 3.030801 5.925916 6.044299
O 2.787936 0.608225 0.141663
O 2.980015 5.892657 0.869920
O 5.836833 5.352040 0.003202
O 3.355807 5.500546 3.345361
O 4.343069 2.931485 6.683449
O 4.327360 2.983092 1.511744
O 4.962233 2.587527 9.111548
O 5.105047 7.780490 9.894545
O 4.787455 2.495948 3.940506
O 5.045396 7.773532 4.942175
O 5.755871 5.338446 5.149980
O 5.949580 1.116655 7.250179
O 5.868618 1.130249 2.077520
O 3.439907 5.474700 8.479270
P 6.227679 6.760404 4.747618
P 6.258464 6.801364 9.890880
P 5.446995 2.579565 2.509288
P 5.477780 2.538605 7.652550
P 2.256610 5.791292 2.221213
P 2.374601 5.943656 7.498706
P 1.527211 1.721866 5.234223
P 1.645202 1.569501 0.192269
Mo 0.833803 3.101665 8.288338
Mo 3.068016 7.323456 4.444590
Mo 3.933276 4.143299 4.984263
Mo 4.016190 4.238408 -0.149473
Mo 7.772183 8.365090 7.415906
Mo 7.689261 0.016617 2.230195
