16

Li 4.779412 2.301819 -1.957266
Li 0.417454 2.211659 4.083055
O 3.738334 3.870054 -3.013857
O 3.362055 3.104030 -0.751427
O 1.834811 1.409448 2.877216
O 3.306470 0.450761 0.920901
O 1.458532 0.643425 5.139646
O 1.890396 4.062718 1.204887
O 1.264335 3.933170 -1.759567
O 3.932531 0.580308 3.885356
F 0.638227 1.691844 0.614274
F 4.558639 2.821634 1.511515
P 2.310147 0.286277 3.932819
P 2.886719 4.227202 -1.807031
Mn 0.000000 0.000000 0.000000
Mn 2.598433 2.256739 1.062894
