44

Li 2.607915 -0.312682 5.577009
Li 3.714429 5.541884 12.731296
Li 5.472638 3.876418 6.604047
Li 0.849699 1.352792 11.704246
O 1.921459 3.466492 8.674242
O 5.021196 0.380077 13.718952
O 4.612374 -0.301283 7.023580
O 6.006258 -0.276782 4.512534
O 0.316130 5.505921 13.795739
O 1.710001 5.530518 11.284682
O 1.301147 4.848995 4.589290
O 2.887174 5.206323 14.202155
O 0.547175 2.811809 6.076193
O 1.145592 3.405691 12.243866
O 1.430699 3.592261 14.697678
O 4.902090 3.752940 8.310916
O 3.703561 4.306170 4.228131
O 2.025152 2.436810 4.025463
O 0.573375 1.185624 7.388518
O 5.775188 2.417478 12.232112
O 3.553455 3.591233 11.421981
O 1.420298 1.476293 9.997376
O 3.435240 0.022775 4.106124
O 2.768920 1.638021 6.886328
O 0.781216 -0.015014 4.169181
O 5.748995 4.043568 10.919733
O 4.297179 2.792250 14.282743
O 2.618771 0.922947 14.080126
O 4.400929 1.762779 9.634056
O 4.891645 1.636886 3.610575
O 5.176777 1.823520 6.064382
O 5.541147 5.244113 14.139060
P 5.594868 4.772674 9.748344
P 0.727463 0.456649 8.560012
P 4.815581 2.874621 11.044523
P 4.147832 1.418187 14.453084
P 1.444178 4.459442 13.679685
P 2.174511 3.810853 3.855144
P 1.506801 2.354594 7.263783
P 4.878197 0.769724 4.628606
Cr 4.838436 1.732546 7.872839
Cr 1.660396 0.522530 2.857054
Cr 4.661916 4.706360 15.451148
Cr 1.483832 3.496874 10.435455
