36

Li 4.291664 4.552748 2.979434
Li 4.291664 4.552748 0.053750
V 3.172029 8.308330 1.852529
V 0.458221 5.429401 4.744231
V 8.125107 3.676094 1.214637
V 5.411299 0.797166 4.106339
P 2.426318 2.573957 4.418904
P 5.577473 1.713306 1.258522
P 7.217669 3.453293 4.204739
P 3.005856 7.392189 4.700347
P 1.365659 5.652202 1.754130
P 6.157010 6.531538 1.539965
O 0.496211 5.114362 2.870931
O 3.945971 6.101776 4.653659
O 8.087118 3.991134 3.087938
O 1.586251 7.222135 1.889668
O 5.510136 0.690795 2.403313
O 7.136617 2.031397 1.145266
O 5.093261 0.815155 0.124760
O 6.337758 7.606934 0.458146
O 4.637358 3.003719 1.305210
O 6.431093 5.035149 1.100645
O 1.360200 2.326566 3.321496
O 7.223128 6.778929 2.637373
O 0.345359 5.520911 6.447044
O 4.640362 6.709855 1.963694
O 3.942967 2.395640 3.995175
O 2.152235 4.070346 4.858224
O 2.245570 1.498561 5.500723
O 6.997078 1.883360 4.069201
O 2.717808 4.798889 1.712585
O 5.865521 4.306606 4.246284
O 3.073192 8.414700 3.555555
O 8.237970 3.584585 -0.488175
O 1.446711 7.074099 4.813602
O 3.490067 8.290341 5.834109
