36

O 8.394780 1.619081 2.440171
O 2.973578 6.915247 1.002954
O 1.405827 5.261747 3.122943
O 0.759665 2.884689 4.884498
O 7.739666 -0.326430 -2.494422
O 4.596455 0.005712 -1.338833
O 6.419610 2.410579 -2.302191
O 6.155098 -2.003521 3.987862
O 2.937336 0.239394 2.024274
O 3.977427 1.900139 -0.316517
O 5.508936 5.883986 -5.474637
O 3.941184 4.472487 -3.257668
O 7.303188 5.009373 -3.927092
O 8.831258 2.983641 -1.110736
O 1.134703 2.394438 1.107641
O 5.780059 2.050933 1.524242
O 5.340244 0.536178 3.781547
O 1.574519 4.052801 -1.092101
O 2.738338 2.531451 2.921127
O 6.356538 4.775996 -1.509981
O 0.558224 0.547501 4.493797
O 2.318308 6.576150 -2.841954
O 4.176424 4.164980 0.612928
O 0.495152 6.869703 -0.797133
Fe 8.067223 4.002339 -2.516577
Fe 3.457381 2.216853 1.313604
Fe 1.532671 4.732843 -2.816498
Fe 5.382092 -1.001328 5.162285
Se 5.615193 1.270772 -0.984363
Se 6.560275 0.810774 2.398541
Se 0.354488 2.688701 -0.145751
Se 5.509830 5.702795 -4.021453
Se 6.160694 4.851983 -0.087016
Se 0.754069 2.166367 3.750089
Se 1.299570 7.687591 -2.243978
Se 1.404932 6.774443 2.203394
