44

Li 0.816780 5.379508 11.159726
Li 4.430695 3.028141 1.200314
Li 3.440517 7.231965 4.955865
Li 1.806958 1.175684 7.404175
O 2.668918 4.706938 8.740801
O 4.708932 6.945063 6.666731
O 5.088267 3.290098 3.286685
O 5.202294 0.503114 9.799259
O 0.045181 7.904535 2.560781
O 0.159208 5.117551 9.073367
O 0.538543 1.462586 5.693309
O 0.757620 3.200414 11.148590
O 0.969513 2.933294 8.148276
O 1.190269 2.588925 1.179816
O 1.173435 5.038065 6.734868
O 1.450302 0.834241 11.829033
O 1.433468 6.792750 5.000204
O 1.654225 7.137119 10.415626
O 1.866118 7.404238 7.415312
O 4.277962 5.474355 4.211764
O 2.464529 0.913726 9.490534
O 2.578557 3.700711 3.619239
O 2.085194 5.666411 0.486711
O 2.782946 7.493922 2.869506
O 3.162281 2.741238 11.873329
O 3.381357 1.003411 4.944728
O 3.593250 1.270530 1.944414
O 3.814006 1.614899 7.359836
O 3.797173 7.573408 0.531007
O 4.074040 3.369584 5.625171
O 4.057206 5.818724 11.180224
O 4.489855 5.207235 1.211450
P 1.679801 2.436965 12.123668
P 3.567674 5.970683 0.236372
P 3.855225 8.183215 2.010704
P 4.015987 3.979391 4.145475
P 0.943937 6.640790 6.440234
P 1.231488 4.428258 8.214565
P 4.303538 1.766859 5.919806
P 1.392250 0.224434 10.349336
Bi 4.245181 2.550839 9.593193
Bi 3.626031 6.754663 8.946867
Bi 1.621444 1.652986 3.413173
Bi 1.002294 5.856810 2.766847
