40

Ni 2.763690 0.690206 3.944992
Ni 4.499927 7.685068 1.191783
Ni 0.868118 4.877844 7.106955
Ni 6.395498 3.497431 -1.970179
P 1.313371 6.047124 1.503219
P 3.103075 1.993617 6.774134
P 4.945179 6.515788 4.071607
P 6.734884 2.194020 0.858963
P 2.318437 1.859487 1.065168
P 0.528733 6.181254 4.277812
P 4.160542 6.381658 -1.637359
P 5.950246 2.328151 3.633556
O 2.692223 1.322498 -0.345258
O 4.185267 5.176004 3.881834
O 0.553459 7.386909 1.313446
O 2.274042 3.304197 6.704149
O 4.571393 7.052777 5.482034
O 2.899578 0.734453 1.843646
O 4.989574 5.071078 -1.567374
O 2.633301 0.923307 5.891678
O 1.082373 1.943642 4.012546
O 4.364039 7.640822 3.293130
O 6.531386 3.453184 4.412034
O 6.552240 6.250819 3.818476
O 4.343185 2.063182 3.886687
O 6.324032 2.865140 2.223130
O 0.732231 4.922090 0.724742
O 6.710158 0.988366 3.823330
O 0.711377 2.124455 1.318300
O 4.630316 7.451968 -0.754903
O 4.714182 2.243996 -1.902626
O 2.549435 6.131279 7.039401
O 1.357766 7.491834 4.347797
O 6.265109 3.264330 -0.023493
O 0.998508 5.110944 5.160269
O 3.078350 3.199271 1.254942
O 2.920432 6.312093 1.250088
O 5.905851 0.883441 0.788978
O 6.181243 6.431633 1.124230
O 0.939585 5.510135 2.913646
