46

Fe 11.763652 0.476648 7.164404
Fe 4.438664 2.090114 3.630952
Fe 10.211312 3.043410 3.435953
Fe 2.886324 4.656876 -0.097500
Fe 7.324988 0.000000 -0.680276
Fe 0.000000 2.566762 4.213728
P 12.954798 2.872073 5.588736
P 12.484768 5.113606 2.016293
P 5.629810 4.828213 2.055284
P 2.165208 0.019918 5.050611
P 5.159780 2.586680 6.910297
P 9.020166 0.305311 5.011621
P 1.695178 2.261451 1.478169
P 9.490196 2.546844 0.156608
O 14.168549 2.917479 4.719237
O 7.806416 0.350717 5.881120
O 12.859500 1.431622 2.416727
O 9.115464 3.998384 -0.243826
O 1.749485 0.982916 0.636346
O 9.074474 1.583846 4.169798
O 0.929629 0.937731 4.774992
O 3.969133 3.073595 7.695170
O 9.892265 2.446288 1.656006
O 6.843561 4.782807 1.185785
O 0.481428 2.216045 2.347667
O 10.680843 2.059929 -0.628266
O 6.395359 3.504492 7.185916
O 12.082700 5.013050 0.516895
O 8.254617 1.629031 -0.119011
O 11.294121 4.626691 2.801167
O 3.355855 0.506833 4.265738
O 13.720347 4.195793 2.291912
O 5.819176 0.869773 3.056872
O 13.144164 1.696989 6.590324
O 4.757712 2.687235 5.410899
O 5.575503 3.549678 2.897106
O 1.790476 3.701902 4.650177
O 4.303211 5.072548 1.197901
O 12.900491 4.150608 6.430558
O 11.628199 2.627738 4.731353
O 5.534512 1.135140 7.310731
O 3.021777 2.505786 2.335552
O 2.567276 0.120474 6.550009
O 10.346765 0.060976 5.869004
O 1.505812 3.436535 0.476581
O 8.830800 4.263751 4.010033
