46

Fe 7.017521 4.927325 6.670553
Fe 3.807604 4.129840 10.024889
Fe 3.815434 3.771451 4.894256
Fe 0.060969 0.253097 7.804882
Fe 0.053139 7.648194 2.529669
Fe 4.588197 1.050582 -0.007548
P 2.461054 5.375958 2.238219
P 6.137792 6.278029 4.459013
P 2.342073 5.448879 7.306547
P 1.526500 1.572136 0.117378
P 5.263000 2.288674 7.447631
P 5.467926 2.401286 2.203993
P 6.342718 6.165418 9.621220
P 1.407518 1.499214 5.185706
O 5.937013 0.935350 7.207567
O 2.008555 3.058541 -0.028585
O 6.322563 3.404905 7.459671
O 0.655592 1.650686 6.532498
O 2.096016 2.782525 4.696818
O 5.840500 0.964805 1.669556
O 0.688714 1.398047 1.410293
O 6.669760 3.336550 2.398316
O 4.479792 2.815942 1.087684
O 3.179858 5.274790 6.013632
O 4.935958 7.213294 4.264690
O 2.535788 0.414889 5.400968
O 3.416584 4.827670 3.275746
O 7.059124 6.198339 8.188702
O 6.779666 6.311602 3.051597
O 0.451989 0.950926 4.148178
O 4.546594 2.321596 8.880150
O 7.125926 6.692686 5.575322
O 1.772557 6.659268 2.727106
O 5.668705 4.812093 -0.544561
O 3.195573 5.080007 8.504463
O 7.394398 6.472037 0.264164
O 1.332785 4.291632 2.022957
O 0.673000 1.203264 9.325308
O 5.283155 7.281648 9.609181
O 2.765062 0.636305 0.165029
O 5.765218 4.841549 4.993449
O 3.212981 5.527430 0.891426
O 1.103510 4.513049 7.258896
O 4.211321 2.595294 6.398842
O 1.860018 6.935285 7.452509
O 4.826052 2.434858 3.611408
