52

Li 0.703630 2.992503 2.942925
Li 6.922161 5.138320 1.360206
Li 4.583453 1.081372 0.040195
Li 3.131575 7.049451 9.389295
Li 4.689589 1.147313 5.098515
Li 6.816025 5.204262 6.472246
V 0.822375 2.924849 8.081793
V 3.900518 3.963688 4.652088
V 3.012829 6.981798 4.250427
V 3.939745 4.100196 -0.386663
V 7.565869 0.043247 1.787064
V 7.605096 8.020636 6.918673
P 6.133021 6.586545 9.394554
P 2.299903 5.658194 7.208301
P 5.383599 2.445748 7.307688
P 5.372592 2.529597 2.176207
P 2.312145 5.558247 2.051008
P 1.523059 1.501298 0.110852
P 6.122014 6.502696 4.263073
P 1.535301 1.601245 5.123919
O 1.893824 7.017499 2.628077
O 7.145845 6.964207 5.290385
O 0.437980 1.186154 9.193709
O 1.144970 4.623924 2.094220
O 0.436477 1.141082 4.185861
O 6.530280 3.491921 2.214558
O 3.398728 5.198030 8.146359
O 1.113544 4.665645 7.203368
O 4.274151 2.951552 1.176093
O 4.644049 2.469992 3.596145
O 0.918378 1.592872 6.606643
O 4.975334 7.548870 9.356202
O 7.231462 7.008501 0.224308
O 5.863246 1.037208 6.847807
O 2.020938 3.006791 4.714284
O 6.620913 3.419708 7.275017
O 6.789793 6.564232 2.861036
O 4.359769 2.907258 6.280376
O 5.713542 5.138207 -0.351229
O 3.397224 5.243103 3.138511
O 5.792072 1.081258 1.751630
O 2.916827 5.649820 5.725577
O 0.812519 1.580173 1.489806
O 6.861565 6.526941 7.974616
O 1.941381 2.960550 9.704143
O 4.715821 2.507284 8.709725
O 3.022686 5.637122 0.672055
O 4.884701 7.476656 4.295743
O 2.721661 0.608696 5.128852
O 2.690235 0.566975 0.067641
O 1.814267 7.063740 7.617936
O 5.642368 5.094156 4.722954
