52

Li 1.782999 2.382168 6.522189
Li 5.514803 4.873496 4.978913
Li 9.080801 0.109160 1.786581
Li 12.812605 2.600488 0.243305
Li 0.000000 0.000000 0.000000
Li 7.297802 2.491328 3.382747
V 7.297802 0.000000 -0.676431
V 11.556609 0.365742 6.803286
V 10.336796 2.857070 3.344955
V 4.258807 2.125586 3.420539
V 0.000000 2.491328 4.059178
V 3.038994 4.616915 -0.037792
P 9.489419 2.466903 0.124182
P 5.106184 2.515753 6.641312
P 2.191617 0.024425 4.859791
P 1.565057 2.435856 1.318066
P 5.732745 4.927185 2.064681
P 13.030546 2.546805 5.447428
P 8.862859 0.055472 4.700813
P 12.403986 4.958232 1.905703
O 2.909225 2.852068 2.096123
O 12.289396 4.573172 0.388604
O 9.163967 3.977196 0.004151
O 9.604010 2.081844 1.641281
O 12.965757 3.968332 6.008932
O 2.306208 0.409485 6.376890
O 1.629847 1.014324 0.756562
O 10.842490 2.077658 -0.475532
O 0.310230 2.648481 2.105699
O 6.230528 3.352351 7.339742
O 8.927649 1.477004 4.139309
O 8.365076 1.630305 -0.574248
O 10.207027 4.621917 5.478870
O 11.686379 2.130589 4.669371
O 5.667955 3.505653 2.626185
O 11.050915 4.568986 2.505417
O 13.528330 4.121634 2.604133
O 1.866165 3.496788 4.739759
O 3.544688 0.413670 4.260077
O 6.987572 0.157153 1.277048
O 1.067274 0.861023 4.161360
O 14.285374 2.334175 4.659795
O 4.388577 0.360739 1.286624
O 13.183392 1.523796 6.640087
O 4.991594 2.900813 5.124213
O 1.412212 3.458860 0.125407
O 5.431637 1.005460 6.761343
O 3.753114 2.904998 7.241026
O 12.729439 1.485868 2.025734
O 7.608031 4.825504 5.488446
O 8.710014 4.015124 3.508154
O 5.885590 0.967532 3.257340
