22

Li 1.533067 2.011703 4.663028
Li 3.609233 4.508399 0.400926
O 2.063208 5.311239 2.100070
O 3.512250 0.950823 2.553267
O 0.344296 3.244169 6.387387
O 1.909216 5.250667 6.538577
O 1.977317 3.668477 8.142409
O 3.347474 2.809343 5.516697
O 0.370276 3.400016 2.021351
O 3.216948 2.652384 1.098867
O 2.011748 3.709881 3.736219
O 4.785791 3.119034 2.855029
O 0.150107 0.229846 2.186772
O 3.237401 1.257019 7.154369
O 5.165070 2.938403 7.078523
O 5.114222 6.199429 6.945713
P 1.176127 4.375481 2.887701
P 4.198110 2.063134 6.280176
P 1.096801 4.280092 7.290734
P 4.183813 2.045941 1.870547
Fe 3.687603 4.290800 4.566806
Fe 1.775065 1.990885 8.840458
