38

Li 6.597218 3.150758 2.236686
Li 4.751988 7.795127 4.334471
Li 2.814149 1.493610 0.046301
Li 0.968920 6.137979 2.144085
Co 0.000000 0.000000 0.000000
Co 3.783069 4.644369 2.190386
P 2.361558 0.847384 4.668260
P 5.025542 2.661873 4.461932
P 6.144627 3.796985 -0.385626
P 1.421511 5.491752 4.766397
P 2.540596 6.626864 -0.081160
P 1.242473 1.982495 2.271546
P 5.204580 8.441354 -0.287489
P 6.323664 7.306242 2.109225
O 3.128954 8.873271 4.362109
O 4.437184 0.415467 0.018662
O 6.146723 1.608289 4.292830
O 5.061791 3.685492 3.428850
O 4.149194 7.162629 -0.234551
O 1.285706 1.220689 3.583472
O 2.497363 5.865057 5.851186
O 2.504346 5.603245 0.951922
O 5.285280 3.652750 0.830476
O 6.280431 8.068049 0.797299
O 3.416943 2.126108 4.615322
O 1.502211 0.991619 5.884362
O 6.063926 8.297118 -1.503591
O 1.278723 0.958876 1.238464
O 6.287415 8.329861 3.142308
O 2.363654 3.036080 2.102444
O 0.654115 4.228902 5.072548
O 6.912022 5.059835 -0.691777
O 5.202484 6.252658 2.278327
O 1.419415 7.680448 0.087942
O 2.280858 5.635988 3.550295
O 5.068775 3.423680 -1.470414
O 0.366125 6.770477 4.819335
O 7.200012 2.518260 -0.438564
