36

Li 6.663483 6.173003 5.562156
Li 4.127488 2.915635 1.616643
Ni 7.169912 9.237855 2.314872
Ni 1.047398 1.373769 5.817980
P 3.483325 3.016616 4.630545
P 1.704808 7.933671 2.499622
P 6.520478 2.662084 5.670884
P 7.817251 4.327729 1.921205
P 6.318015 6.657645 0.959445
P 0.419919 6.283291 6.249908
P 4.757054 7.507591 3.282789
P 2.000996 3.967562 6.957906
O 5.208017 2.998647 4.777241
O 7.237889 9.267991 6.191989
O 4.959236 6.619565 1.963892
O 7.507074 3.826294 5.705009
O 5.249858 8.863557 2.983615
O 7.435155 7.586961 1.541775
O 1.040371 1.307565 2.059390
O 6.940479 3.098529 1.860121
O 5.347221 6.927378 4.438131
O 2.222725 8.427186 1.229859
O 1.314992 5.346325 7.119950
O 1.221448 7.535864 6.243855
O 6.973924 5.266872 1.051533
O 0.737510 3.067655 6.568995
O 3.228696 3.367006 3.275694
O 8.079377 4.906652 3.261127
O 2.837379 3.703602 0.493954
O 6.000135 2.235963 -0.661049
O 0.085058 5.681451 4.936572
O 0.665517 6.821796 2.399512
O 3.022258 4.131605 5.680860
O 3.034052 7.554378 3.391847
O 2.905142 1.768367 5.126252
O 5.850499 6.734591 7.225592
