46

Fe 2.364368 4.060969 2.615609
Fe 4.009640 8.682515 7.949483
Fe 3.187004 6.371742 -0.192007
Fe 2.090076 3.924306 8.090121
Fe 4.283933 8.819188 2.474970
Fe 0.000000 4.777415 5.282330
P 2.701413 9.279192 -0.229683
P 1.157552 6.285020 8.041231
P 1.616366 2.435560 5.319922
P 4.963587 6.332949 7.998094
P 4.757643 10.307925 5.245170
P 5.216457 6.458465 2.523861
P 1.410422 6.410536 2.566997
P 3.672595 3.464293 10.794775
O 1.217181 0.952230 5.067683
O 4.013210 5.002309 7.771950
O 4.856733 7.307250 6.797290
O 1.444497 9.934186 0.025404
O 2.638374 2.986032 9.639018
O 4.292347 5.131038 2.821441
O 2.207039 7.783729 -0.178062
O 1.517275 5.436234 3.767802
O 4.638538 7.196730 1.321890
O 6.281777 9.714269 2.269465
O 4.929512 2.809289 10.539688
O 1.308705 5.286281 6.879169
O 0.364612 3.175308 2.298534
O 5.156828 11.791255 5.497409
O 2.360799 7.741175 2.793142
O 3.735634 9.757453 0.926073
O 4.027698 10.051736 3.881032
O 5.065304 7.457204 3.685923
O 2.625059 2.980087 4.165257
O 3.015639 3.027159 1.209080
O 4.398155 7.123839 9.160722
O 6.009396 9.568177 8.266558
O 3.358370 9.716326 9.356012
O 2.346311 2.691748 6.684060
O 0.092232 3.029215 8.295627
O 6.085317 9.722535 5.296238
O 3.748950 9.763397 6.399835
O 4.166970 4.959755 10.743154
O 2.081662 7.612446 7.743651
O 1.975853 5.619645 1.404370
O 0.288692 3.020950 5.268853
O 1.735470 5.546755 9.243202
