36

Li -0.095041 1.432960 2.962389
Li 2.718115 3.897654 3.595246
Li 5.665421 7.666253 3.645585
O 4.482467 4.580043 0.328878
O 1.243482 3.213415 5.576937
O 2.059796 2.146681 2.849214
O 2.866816 2.490630 0.446423
O 1.371807 4.410192 0.396357
O 1.198769 4.931791 2.835471
O 4.220994 3.051969 5.595145
O 1.390072 6.660498 6.081522
O 3.097703 5.123055 5.537912
O 1.598742 7.939281 0.971871
O 0.158436 1.274230 6.344663
O 4.770831 4.410129 2.837570
O 3.623246 7.114504 4.416091
O 4.052390 6.915166 6.903573
O 6.901145 3.524169 6.298498
O 8.296161 10.210505 0.985626
O 7.140223 4.846764 1.332995
O 4.283422 8.462980 1.696448
O 7.405759 6.441007 4.366666
O 7.103591 7.122787 6.752414
O 5.617536 9.022428 6.851172
O 6.284088 9.259988 4.400209
O 7.294157 8.221636 1.643457
O 5.398291 6.381953 1.695028
P 2.716521 1.601329 1.629592
P 0.339276 4.859569 1.552623
P 3.078437 6.479065 5.643305
P 5.404626 5.011581 1.614604
P 5.772936 9.869508 5.609757
P 8.182099 6.613986 5.705481
V 2.883301 3.821943 6.751841
V 5.614924 7.689208 0.494000
V 8.497038 11.492474 7.220680
