46

V 4.053966 3.984610 -0.408322
V 7.626230 7.380596 6.993181
V 3.200624 6.564603 4.241034
V 7.646558 0.163417 1.784324
V 4.074294 3.559403 4.621142
V 0.699551 2.743410 8.162341
P 1.572730 1.306114 0.069735
P 2.414590 5.351175 7.252546
P 6.234188 6.110554 4.244413
P 5.531766 2.505915 2.008783
P 2.327445 5.127307 2.095319
P 6.168758 6.327108 9.605540
P 5.466337 2.289361 7.369911
P 1.485584 1.529983 5.150830
O 2.235814 2.831450 4.864020
O 2.699693 0.376250 0.091394
O 1.200482 4.197443 2.073660
O 1.387261 4.184947 7.196083
O 3.412419 4.862116 3.271439
O 7.323031 6.621936 0.346941
O 4.936958 7.061358 4.156177
O 2.021102 6.617534 2.717069
O 5.738585 4.829292 -0.398035
O 1.879073 2.796341 9.686307
O 0.487756 1.040923 9.131937
O 0.712819 1.384709 1.388452
O 2.512914 0.363755 5.207293
O 3.088057 5.378184 5.778515
O 5.961940 1.008099 1.774037
O 7.040455 6.346543 2.951517
O 3.511374 5.021559 8.225336
O 5.973297 0.876253 7.055453
O 4.377494 2.800743 1.029062
O 0.388801 1.200367 4.178040
O 6.763566 3.240165 7.458147
O 6.592309 3.511286 2.141049
O 3.187355 5.205894 0.776602
O 4.660069 2.525350 8.662807
O 7.041149 6.218678 8.188410
O 4.596091 2.765038 6.224367
O 5.727227 4.697446 4.558871
O 5.108215 7.332487 9.473275
O 4.659375 2.397485 3.425914
O 7.104434 6.586231 5.389957
O 0.812118 1.556991 6.624861
O 1.664361 6.652643 7.539356
