38

Li 4.379482 3.244660 1.430564
Li 4.139253 8.027977 6.282963
Li 1.580029 4.641418 2.487319
Li 6.938705 6.631220 5.226209
Fe 1.148956 1.520386 5.596768
Fe 7.369779 9.752252 2.116759
P 4.745557 7.923666 3.174887
P 1.792521 7.993939 1.936373
P 7.962964 4.915260 2.117972
P 1.968799 4.249248 6.778708
P 6.549936 7.023390 0.934820
P 0.555771 6.357377 5.595556
P 3.773178 3.348972 4.538641
P 6.726214 3.278699 5.777155
O 3.297628 2.059783 4.903687
O 7.088414 5.663053 1.035224
O 6.020931 2.754662 6.999668
O 2.497804 8.517975 0.713860
O 5.267398 6.970221 2.041180
O 0.299664 5.609229 4.338481
O 5.509832 3.574162 4.682119
O 0.768961 3.321436 6.353432
O 8.219071 5.663409 3.375046
O 7.704983 4.413667 5.909337
O 7.749774 7.951202 1.360096
O 3.251337 4.302416 5.672347
O 2.656704 4.154563 0.711735
O 3.358060 3.804629 3.208134
O 1.430330 5.609588 6.678303
O 0.813752 6.858970 1.804190
O 5.862031 7.118074 7.001792
O 5.221107 9.212854 2.809840
O 7.527691 9.961213 5.826079
O 1.358696 7.580081 5.527423
O 0.991044 1.311425 1.887449
O 7.160039 3.692557 2.186104
O 3.008902 7.698483 3.031409
O 5.160675 7.468009 4.505394
