44

Li 0.219292 5.441282 3.173416
Li 6.088076 -0.110700 5.191266
Li 2.251405 5.977331 8.828623
Li 3.500655 -0.175645 2.666072
Ni 4.094106 7.362374 4.999691
Ni 2.394548 2.428800 4.023354
Ni 4.609583 7.650719 1.769748
Ni 1.866745 2.204400 7.278682
P 5.692442 2.455615 3.139546
P 3.739429 5.224367 2.873098
P 2.718064 4.593001 6.173053
P 0.585486 2.085682 2.071871
P 0.739408 7.259230 5.781147
P 4.526834 0.022673 -0.157083
P 1.956805 9.773567 9.209244
P 5.944370 7.707319 7.026582
O 2.419633 4.545800 3.292288
O 6.408286 2.991227 -0.352238
O 6.187849 6.974864 4.271624
O 5.039976 4.216264 3.290353
O 1.954831 1.649290 2.516145
O 0.472469 9.486018 8.920195
O 3.689815 6.801276 3.410617
O 2.001631 8.055593 5.736362
O 0.298631 3.017582 4.654861
O 6.008595 0.321716 0.112247
O 2.598770 0.230786 4.502441
O 1.647886 0.159912 6.729052
O 4.818115 9.662416 2.316582
O 2.363639 4.435444 7.523773
O 3.637864 1.544486 -0.214925
O 6.352725 2.048273 4.224396
O 1.332652 5.501533 5.791122
O 4.438624 1.672542 3.119110
O 4.595212 7.981314 6.519158
O 5.594417 8.410973 8.284439
O 0.263225 6.847650 9.693150
O 3.947262 9.554968 4.578470
O 3.969190 5.331184 5.668013
O 0.066851 7.396306 4.680650
O 2.786267 8.208411 9.276198
O 2.809534 3.001764 5.647259
O 0.721615 1.675625 0.758944
O 4.104206 5.461987 1.521985
