46

Co 10.128875 2.990941 3.327459
Co 2.889745 4.642932 -0.157984
Co 11.588516 0.446317 7.128869
Co 4.349385 2.098307 3.643426
Co 0.000000 2.544624 4.159083
Co 7.239130 0.000000 -0.673640
P 5.121554 2.492963 6.838980
P 5.553036 4.840990 2.006991
P 12.360685 0.051661 2.006257
P 1.686095 2.296366 1.478451
P 8.925225 0.248259 4.963894
P 2.117576 5.037588 4.964627
P 9.356706 2.596285 0.131905
P 12.792166 2.792883 5.492434
O 6.800671 4.901837 1.176769
O 9.614622 2.421348 1.651689
O 9.006680 4.052874 -0.217701
O 12.710711 1.508250 2.355864
O 12.102769 4.965972 0.486473
O 10.582421 2.085421 -0.578842
O 2.375492 0.123277 6.484412
O 10.243587 0.044394 5.841797
O 0.896364 0.853762 4.526274
O 7.677590 0.187412 5.794116
O 8.135494 1.690862 -0.306448
O 1.685168 1.001976 0.665146
O 8.780573 4.177164 3.943448
O 5.471581 1.036375 7.188586
O 5.553962 3.546601 2.820297
O 14.039801 2.732036 4.662212
O 13.581897 4.235487 2.444611
O 11.134970 4.630046 2.717004
O 0.438460 2.357213 2.308673
O 5.697688 0.912085 3.027437
O 4.234674 5.044855 1.129088
O 4.863639 2.667901 5.319196
O 3.343291 0.459203 4.253881
O 3.004456 2.500231 2.356354
O 1.767550 3.580999 4.615021
O 6.342767 3.398387 7.277333
O 11.473805 2.589018 4.614531
O 12.793093 4.087272 6.305739
O 1.541443 3.456709 0.458005
O 3.895839 3.003827 7.549727
O 8.924299 1.542648 4.150588
O 12.936818 1.632539 6.512880
