52

Cr 7.608530 3.624523 2.691375
Cr 7.005772 4.484185 -2.756757
Cr 2.012048 1.979754 -0.887877
Cr 2.614806 1.120092 4.560255
P 6.685378 0.722579 1.711840
P 5.703915 1.947596 -0.665276
P 6.231133 1.356918 5.059766
P 0.955554 7.117337 0.315671
P 3.389445 4.247359 -3.256268
P 2.935200 4.881698 0.091658
P 1.615507 6.477909 -3.086044
P 8.886287 -2.097892 -0.988661
P 3.916662 3.656681 2.468774
P 0.734291 7.702168 2.792159
P 8.005071 -0.873632 4.889542
P 8.665023 -1.513060 1.487827
O 9.164418 -1.321997 0.051172
O 8.810496 4.627720 1.164881
O 4.861191 4.902418 -2.956127
O 3.019312 2.727518 5.437939
O 2.832721 7.306902 -2.688410
O 2.306331 3.736376 -0.465463
O 2.296336 -0.587548 4.019102
O 0.469657 1.499165 4.375021
O 1.696108 6.757333 3.585522
O 0.456160 6.926274 1.752326
O 9.150920 4.105112 -2.571524
O 7.314246 1.867901 2.268961
O 6.207437 1.130256 -1.687360
O 0.073078 2.404171 6.687062
O 2.854137 4.207626 1.524260
O 3.997975 1.555878 -0.256460
O 4.759386 0.701859 4.759625
O 6.252336 3.410760 -1.156817
O 5.252027 -0.141449 2.199883
O 5.622602 4.048399 2.059958
O 7.324242 6.191825 -2.215604
O 6.766441 1.396650 0.279238
O 1.769349 0.248930 6.351195
O 6.601265 2.876759 -3.634441
O 7.713991 0.708633 4.704428
O 6.787856 -1.702625 4.491908
O 0.810081 0.976556 0.638617
O 4.368550 5.745726 -0.396385
O 7.924470 -1.153056 -1.782024
O 1.906587 4.895644 -2.900931
O 3.368241 2.193517 2.960315
O 8.230135 -0.084057 1.596032
O 9.547500 3.200106 -4.883564
O 7.851228 5.355346 -4.547697
O 3.413140 4.474020 3.490858
O 1.390443 5.688333 0.207466
