32

O 4.555981 0.447590 4.420113
O 7.429034 -1.277505 -1.836793
O 7.194541 3.367576 0.592191
O 6.538983 -1.794899 2.478697
O 0.216960 6.158752 9.366858
O 0.424402 1.501790 7.005807
O 1.046598 6.752144 5.097355
O 1.934946 3.745075 7.454735
O 1.713942 -0.120569 5.350163
O 1.211029 3.409727 1.743860
O 3.440724 4.963850 5.785292
O 2.084693 2.074405 3.549850
O 4.667628 3.748156 7.497548
O 5.850462 5.058550 2.163281
O 2.860528 4.441967 3.084937
O 3.854801 2.489927 1.672621
O 5.585597 1.013613 0.178895
O 2.849224 1.112552 0.102210
O 5.437808 2.779218 3.977749
O 3.970974 -0.062518 1.880771
O 6.320321 1.341071 5.728073
O 3.696085 2.387401 5.887609
P 3.437124 3.760086 6.717755
P 2.469805 3.142116 2.585467
P 5.054714 1.725020 4.935907
P 4.094587 1.098002 0.886360
P 0.285184 0.184215 6.264647
P 7.233424 4.672263 1.299159
Mo 6.662973 2.489517 -0.967583
Mo 4.757225 4.887104 3.902659
Mo 2.704223 0.006722 3.681896
Mo 0.876495 2.306152 8.514631
