52

Li 13.689055 0.155061 2.404113
Li 8.480169 2.394867 3.678839
Li 9.771904 4.591102 1.217440
Li 0.645868 2.394867 1.305492
Li 17.606205 4.591102 3.590787
Li 4.563018 6.830909 2.492165
Fe 1.612917 5.790482 1.368656
Fe 10.738954 1.195488 1.280604
Fe 7.513119 5.790482 3.615675
Fe 16.639156 1.195488 3.527623
P 7.533415 0.903530 1.062184
P 16.659452 6.082439 0.974132
P 15.968775 3.299515 1.132181
P 13.689055 1.706526 -0.132078
P 6.842739 3.686454 1.220233
P 1.592621 0.903530 3.922147
P 11.409334 3.299515 3.676045
P 10.718658 6.082439 3.834095
P 4.563018 5.279444 -0.044026
P 2.283298 3.686454 3.764097
O 6.457766 2.161445 0.949405
O 0.378110 1.474997 3.138114
O 12.804687 0.932431 0.787297
O 14.509321 2.699071 0.819439
O 1.288414 0.617937 0.314032
O 9.504147 5.510973 3.050062
O 7.837623 0.617937 4.670298
O 11.085232 3.124007 2.199178
O 3.678651 6.053538 0.875349
O 2.668271 2.161445 4.034926
O 1.959196 3.861963 2.287230
O 15.583803 4.824532 0.861353
O 2.356397 6.823441 3.165409
O 10.380958 2.760709 4.622568
O 12.868788 2.699071 3.988788
O 16.292877 3.124007 2.609048
O 5.383285 4.286898 0.907491
O 14.573423 0.932431 4.020929
O 3.742752 4.286898 4.076840
O 11.794307 4.824532 3.946874
O 6.769639 6.823441 1.818921
O 7.166841 3.861963 2.697100
O 8.747927 1.474997 1.846216
O 7.871115 4.225261 0.273711
O 16.997152 2.760709 0.185659
O 16.963659 6.368033 4.582246
O 15.895676 0.162529 1.730869
O 1.254921 4.225261 4.710620
O 17.873963 5.510973 1.758164
O 10.414450 6.368033 0.225980
O 5.447386 6.053538 4.108981
O 11.482434 0.162529 3.077357
