37

O 3.142269 0.984916 2.891130
O 7.933276 9.630502 5.262522
O 0.223733 3.013412 3.574478
O 6.322675 7.826722 1.694915
O 6.981838 5.230560 0.514738
O 6.439224 7.745204 5.100145
O 7.864221 9.678529 1.638439
O 1.048265 1.151027 5.021314
O 0.178332 3.388574 5.962455
O 0.979193 1.199015 1.397228
O 8.688745 7.815886 3.085446
O 2.589290 3.003674 4.965265
O 1.930101 5.599385 6.146163
O 2.472211 3.084547 1.560019
O 5.368382 9.780574 6.144284
O 1.722962 7.314725 1.606767
O 3.561220 7.608259 6.203310
O 3.940602 5.773198 1.345322
O 8.733367 7.440721 0.697498
O 5.770456 9.844687 3.768803
O 4.971292 5.056744 5.316022
O 5.350683 3.221634 0.457589
O 7.189338 3.514935 5.054410
O 3.544139 1.049724 0.515696
P 0.965735 2.678868 4.870918
P 2.588009 1.551167 1.601455
P 2.712476 6.626894 0.704685
P 6.199586 4.202924 5.956355
P 6.324318 9.278432 5.058651
P 7.946627 8.150774 1.789190
Ni 5.692591 9.790432 1.823160
Ni 5.497453 6.697293 0.202970
Ni 3.220063 1.039578 4.836795
Ni 3.414839 4.132373 0.130007
Ni 0.038287 8.485777 1.299173
Ni 8.653665 7.731534 5.027156
Ni 0.258379 3.097717 1.632776
