22

Li 1.545131 5.768984 10.008799
Li 3.828937 -0.031937 3.402656
O 1.391107 2.368579 2.263275
O 4.572875 2.009431 6.659074
O 0.273888 6.678126 8.924879
O 0.696738 4.531653 3.648510
O 0.813051 2.024953 4.480197
O 5.106267 -0.296897 1.740091
O 1.593843 0.794287 7.743024
O 2.387459 -0.210908 2.185983
O 2.243134 3.215665 6.594974
O 4.272619 4.606313 6.034128
O 3.102340 -0.307237 5.082876
O 3.533807 5.578536 2.695749
O 3.953312 4.066491 8.217832
O 2.965619 3.278241 3.970682
P 4.019380 5.715134 8.843104
P 3.765374 3.392747 6.790140
P 1.325695 0.716780 1.648965
P 1.457506 3.099689 3.684161
Mn 1.111385 1.597640 6.206246
Mn 4.066380 4.970837 4.310396
