50

C 6.272277 -0.420167 13.752526
C 3.136134 3.863885 4.584175
Cl 6.548273 -2.116830 16.811509
Cl 8.072069 0.477622 16.811509
Cl 4.196490 0.378707 16.811509
Cl 2.860138 2.204198 1.525192
Cl 4.196490 0.378707 10.693542
Cl 6.548273 -2.116830 10.693542
Cl 8.072069 0.477622 10.693542
Cl 1.336343 5.002800 7.643159
Cl 5.211921 4.384656 7.643159
Cl 5.211921 4.384656 1.525192
Cl 4.456463 1.263365 4.584175
Cl 8.983706 -0.203340 4.584175
Cl 5.376662 -2.320526 4.584175
Cl 0.424705 4.443974 13.752526
Cl 4.951948 5.304144 13.752526
Cl 4.031749 1.843536 13.752526
Cl 6.721849 3.367468 4.584175
Cl 1.047429 1.802917 4.584175
Cl 1.639133 6.421256 4.584175
Cl 8.360982 -2.760960 13.752526
Cl 2.686562 -0.436181 13.752526
Cl 7.769278 1.936653 13.752526
Cl 6.555837 1.704642 7.189160
Cl 8.605940 -1.832568 1.979190
Cl 3.655046 -1.132562 1.979190
Cl 3.655046 -1.132562 7.189160
Cl 8.605940 -1.832568 7.189160
Cl 0.802472 2.764126 11.147541
Cl 2.852574 6.026675 11.147541
Cl 5.753366 2.800839 11.147541
Cl 6.555837 1.704642 1.979190
Cl 5.753366 2.800839 16.357511
Cl 0.802472 2.764126 16.357511
Cl 2.852574 6.026675 16.357511
Cl 2.860138 2.204198 7.643159
Cl 1.336343 5.002800 1.525192
W 4.804546 -1.153417 15.224578
W 7.966356 -1.071184 15.224578
W 6.045930 0.964099 15.224578
W 4.603865 2.933996 3.112123
W 6.045930 0.964099 12.280474
W 4.804546 -1.153417 12.280474
W 7.966356 -1.071184 12.280474
W 1.442055 3.439832 6.056227
W 3.362482 5.217826 6.056227
W 3.362482 5.217826 3.112123
W 1.442055 3.439832 3.112123
W 4.603865 2.933996 6.056227
