46

Mo 10.921511 0.155706 8.009602
Mo 4.081476 2.422810 4.070599
Mo 9.598594 2.734222 3.807405
Mo 0.000000 2.578516 4.372934
Mo 2.758559 5.001326 -0.131597
Mo 6.840035 0.000000 -0.433931
P 2.104952 0.004579 5.250838
P 11.575118 5.152452 2.627167
P 5.263024 5.131427 2.390321
P 8.417046 0.025605 5.487684
P 1.577011 2.552911 1.548682
P 12.103059 2.604121 6.329323
P 8.944987 2.573937 0.443973
P 4.735083 2.583095 7.434032
O 8.452655 1.132355 4.462246
O 12.736446 4.326765 3.256888
O 5.896411 3.408783 8.063752
O 1.612620 1.446161 0.523244
O 3.398909 3.146042 7.871965
O 7.154950 0.121644 6.343125
O 1.452112 3.949095 0.839304
O 3.441126 0.567526 4.812904
O 1.995922 0.139616 6.781354
O 0.314915 2.456872 2.404123
O 12.227958 1.207937 7.038700
O 10.238944 4.589506 3.065101
O 8.816408 4.073787 -0.029435
O 2.853471 2.552437 2.466018
O 4.863662 1.083245 7.907440
O 13.365155 2.700160 5.473882
O 1.976373 3.661761 4.777430
O 8.292147 3.786453 4.778307
O 5.387923 1.370579 3.099698
O 5.227415 4.024677 3.415759
O 8.835957 2.438900 1.974490
O 10.826599 2.604595 5.411987
O 9.693506 0.026079 6.405020
O 11.684148 5.017416 1.096650
O 6.525120 5.035388 1.534880
O 4.844113 2.718132 5.903515
O 0.943624 0.830267 4.621117
O 7.783659 1.748249 -0.185748
O 12.067450 3.710871 7.354761
O 10.281161 2.010990 0.006039
O 11.703697 1.495271 3.100575
O 3.986564 5.130953 1.472985
