36

Li 2.111268 3.811499 4.967293
Li 3.134770 4.974622 6.511856
V 0.000000 0.000000 4.898633
V 0.000000 5.153847 1.601728
P 2.465422 2.413617 0.853442
P 0.933936 7.818195 5.834529
P 2.780615 6.372503 10.625707
P 2.780615 8.873964 9.025529
P 2.465422 -0.087843 2.453621
P 0.933936 3.507693 8.591947
P 4.312101 5.278428 2.887202
P 4.312101 0.967926 5.644621
O 1.253362 6.531958 10.815980
O 1.993321 8.811934 5.210906
O 5.246037 0.868215 6.746952
O 3.992675 2.254163 0.663170
O 3.992675 -0.357652 2.333942
O 3.590587 8.267054 7.775372
O 1.253362 9.143773 9.145208
O 1.993321 2.442192 9.285616
O 3.252716 -0.025814 6.268243
O 5.190828 0.222165 4.458613
O 3.188232 7.868575 10.165947
O 1.655450 0.519067 3.703778
O 0.055209 8.563956 7.020537
O 3.580541 4.752045 4.065706
O 0.055209 4.581703 9.567976
O 3.252716 6.343928 2.193533
O 5.190828 4.204418 1.911174
O 0.000000 7.917906 4.732198
O 1.655450 3.595037 1.736086
O 1.665496 4.034076 7.413444
O 3.590587 5.191083 9.743063
O 3.580541 2.438266 5.545824
O 1.665496 6.347854 5.933325
O 2.057805 0.917546 1.313203
