34

Mn 0.000000 0.000000 4.931690
Mn 0.000000 5.156745 1.506800
P 4.211193 5.528274 2.994891
P 2.428943 2.537488 0.894294
P 0.935637 3.527718 8.624592
P 4.211193 1.175074 5.886101
P 2.717886 6.518505 10.725190
P 2.428943 0.005577 2.575880
P 0.935637 7.880918 5.733382
P 2.717886 9.050415 9.043603
O 1.967051 2.449309 9.384080
O 5.084172 4.495897 1.998535
O 3.945256 -0.173343 2.551067
O 0.062658 8.662750 6.896140
O 1.201574 6.586070 10.823960
O 3.490235 2.583374 5.678082
O 1.656595 6.472618 5.941402
O 1.600237 0.535989 3.835975
O 3.064155 7.988362 10.160009
O 0.000000 7.933466 4.594311
O 3.179778 0.116931 6.545620
O 5.084172 0.393242 4.723343
O 3.546593 5.310342 9.915228
O 1.967051 8.939061 5.073863
O 0.062658 4.560095 9.620948
O 1.600237 3.745650 1.704255
O 1.201574 9.229335 9.068417
O 3.945256 2.469922 0.795523
O 1.656595 4.129733 7.497445
O 5.146830 1.122526 7.025172
O 2.082675 1.067630 1.459475
O 3.490235 4.926259 4.122038
O 3.179778 6.606684 2.235403
O 3.546593 8.520003 7.783508
