40

Ni 5.583552 0.046209 -0.130854
Ni 5.583552 4.051052 4.290244
Ni 1.671687 8.148314 5.954242
Ni 1.671687 4.143470 1.533144
P 1.240399 2.475459 7.774789
P 6.014839 6.572720 2.469697
P 1.240399 1.621803 3.353691
P 3.137129 6.041158 3.653218
P 3.137129 6.250626 -0.767880
P 4.118110 2.153365 2.170170
P 6.014839 5.719064 -1.951401
P 4.118110 1.943896 6.591268
O 6.985184 4.795812 -1.300566
O 6.217304 5.081825 2.720866
O 2.465642 5.567973 2.489144
O 1.037934 3.112698 3.102523
O 6.099363 5.482209 5.451256
O 2.465642 6.723811 6.910242
O 3.689180 4.883288 4.415355
O 4.454673 6.985019 3.125882
O 3.566058 0.786027 5.829131
O 4.789596 2.626549 3.334245
O 1.037934 0.984564 7.523621
O 3.566058 3.311234 1.408033
O 6.099363 6.809575 1.030158
O 1.155876 2.712313 0.372133
O 3.689180 7.408496 -0.005743
O 5.183084 2.833469 5.813001
O 2.072154 5.361053 0.010388
O 5.183084 1.263792 1.391903
O 2.072154 6.930731 4.431486
O 0.270054 0.698550 2.702856
O 4.454673 5.306765 -1.295207
O 6.217304 7.209959 -1.700232
O 1.155876 1.384948 4.793231
O 0.270054 3.398711 7.123954
O 2.800566 2.887758 7.118604
O 6.985184 7.495972 3.120532
O 2.800566 1.209503 2.697506
O 4.789596 1.470712 -1.086853
