76

Li 0.468420 6.709222 2.592051
Li 4.921416 20.127667 1.640404
O 0.689797 10.875837 2.213245
O 4.647343 12.137976 -1.564924
O 4.647343 1.280469 -1.564924
O 4.632273 16.728990 -0.286285
O 4.359148 20.127667 -0.063154
O 4.658182 8.230149 0.859743
O 4.658182 5.188295 0.859743
O 4.700050 24.294282 2.019218
O 4.700050 15.961052 2.019218
O 4.474948 12.633439 2.215124
O 4.632273 23.526345 -0.286285
O 5.002770 9.039121 -1.429014
O 0.387066 17.797769 5.661475
O 0.387066 22.457566 5.661475
O 0.742494 14.698913 5.797373
O 0.742494 25.556421 5.797373
O 0.757564 3.310545 4.518733
O 0.757564 10.107900 4.518733
O 1.030689 6.709222 4.295602
O 0.731655 18.606740 3.372706
O 0.731655 21.648594 3.372706
O 0.689797 2.542607 2.213245
O 5.002770 4.379324 -1.429014
O 0.914899 14.203451 2.017333
O 0.914899 26.051884 2.017333
O 2.221213 16.630686 4.084977
O 2.221213 23.624648 4.084977
O 2.685117 18.885119 4.839640
O 2.685117 21.370215 4.839640
O 2.302266 1.490145 3.664974
O 2.302266 11.928300 3.664974
O 1.706311 20.127667 0.709137
O 3.232099 14.160217 3.918330
O 3.232099 26.095118 3.918330
O 2.775887 3.894838 2.873249
O 2.775887 9.523607 2.873249
O 2.613949 17.313283 1.359212
O 2.613949 22.942052 1.359212
O 2.157748 0.741772 0.314127
O 2.157748 12.676673 0.314127
O 3.683542 6.709222 3.523312
O 3.087571 14.908590 0.567487
O 3.087571 25.346745 0.567487
O 2.704736 5.466674 -0.607184
O 4.474948 0.785006 2.215124
O 3.168623 3.212242 0.147471
O 3.168623 10.206203 0.147471
O 2.704736 7.951770 -0.607184
P 1.647750 2.901309 3.281813
P 1.647750 10.517136 3.281813
P 2.539214 6.709222 4.628815
P 1.631742 14.098465 0.677415
P 1.631742 26.156870 0.677415
P 3.758105 0.680020 3.555042
P 3.758105 12.738425 3.555042
P 1.413362 22.348205 4.463936
P 2.850623 20.127667 -0.396366
P 3.742097 16.319754 0.950638
P 3.742097 23.935580 0.950638
P 3.976485 4.488685 -0.231473
P 1.413362 17.907129 4.463936
P 3.976485 8.929760 -0.231473
Co 4.180324 12.027811 0.419684
Co 4.180324 1.390634 0.419684
Co 4.654802 8.583511 2.803689
Co 4.654802 4.834934 2.803689
Co 4.394581 24.256040 4.006979
Co 4.394581 15.999268 4.006979
Co 0.995267 10.837595 0.225484
Co 0.995267 2.580850 0.225484
Co 0.735034 22.001956 1.428772
Co 0.735034 18.253379 1.428772
Co 1.209524 25.446256 3.812767
Co 1.209524 14.809079 3.812767
