36

Li 0.000940 0.001237 9.589076
Li 4.771623 6.275896 16.310096
Cr 4.749879 6.247298 6.767942
Cr 0.000000 0.000000 3.188432
Cr 0.022684 0.029835 0.000676
Cr 0.000000 0.000000 12.753709
P 3.101541 4.079314 17.890855
P 3.086383 4.059378 11.487361
P 1.666102 2.191347 1.745545
P 3.106461 4.085786 5.023073
P 1.686180 2.217755 14.411792
P 1.671022 2.197819 8.008317
O 3.607495 4.744772 3.779430
O 1.379495 3.955578 4.962356
O 1.165069 1.532361 2.989169
O 3.374326 2.324377 14.368886
O 1.413103 3.964349 17.926779
O 1.070510 3.521712 14.329657
O 3.532708 4.646409 10.174432
O 3.596475 4.730278 6.340585
O 1.064320 3.505610 7.933293
O 3.659482 4.813149 19.167609
O 3.713255 2.742681 5.002095
O 3.541060 4.657394 16.565622
O 1.231507 1.619745 9.333531
O 1.113081 1.463984 6.731544
O 1.176088 1.546855 0.428033
O 1.114818 1.466269 13.141608
O 1.398237 3.952756 11.530287
O 3.393068 2.321555 1.806243
O 3.702053 2.755421 11.569516
O 1.059309 3.534452 1.766504
O 3.359460 2.312784 7.972374
O 3.657745 4.810864 12.757564
O 1.239855 1.630724 15.724721
O 3.708243 2.771523 17.965861
