36

Li 4.247218 3.059879 1.490011
Li 6.762702 6.308435 5.359242
Co 7.322483 9.394218 2.284178
Co 1.157347 1.432413 5.716133
P 3.646363 3.174899 4.511957
P 2.061709 4.129149 6.786371
P 6.703607 2.808371 5.643117
P 7.972362 4.446872 1.964513
P 1.689651 8.096625 2.417095
P 0.390415 6.418760 6.094164
P 4.781103 7.641041 3.180841
P 6.409523 6.743310 0.908632
O 0.827793 3.186928 6.478505
O 2.972347 3.943028 0.449882
O 0.687906 6.975428 2.302413
O 7.499640 7.718962 1.428143
O 8.334618 5.051122 3.283297
O 3.018981 1.932531 4.944951
O 8.372663 8.796896 3.868870
O 2.198970 0.824042 -0.184638
O 3.050783 4.287911 5.487840
O 1.339502 5.494165 6.915097
O 3.043009 7.694116 3.258393
O 5.972818 6.718788 7.013773
O 5.329006 6.986475 4.311111
O 6.195272 2.288319 -0.566986
O 1.207473 7.646408 6.071102
O 7.135070 3.217003 1.931251
O 7.383445 9.544414 6.090449
O 7.699984 3.946546 5.702223
O 5.317639 8.985224 2.962160
O 4.989743 6.791930 1.842997
O 1.019858 1.326325 2.027376
O 7.030831 5.366240 1.160256
O 5.358738 3.206859 4.818542
O 3.505441 3.532358 3.146966
