40

Li 1.193844 4.599933 6.450872
Li 3.916954 8.880725 4.774737
Li 4.252376 4.387172 -0.305923
Li 1.529266 0.106380 1.370212
V 1.548878 5.874754 1.411144
V 1.174232 1.381201 6.409939
V 3.897343 3.112351 4.733804
V 4.271988 7.605904 -0.264991
Ge 1.210597 3.071577 3.553273
Ge 1.258082 3.048768 -0.258679
Ge 4.188138 5.938338 6.403627
Ge 3.981193 1.444785 -1.934814
Ge 1.512513 7.565129 4.267811
Ge 1.465028 7.542320 8.079762
Ge 4.235624 5.915528 2.591676
Ge 3.933707 1.421976 1.877138
O 0.940960 7.490240 2.839579
O 0.248876 6.168722 8.291823
O 1.141070 4.668172 2.938632
O 2.971986 7.311936 6.615688
O 3.664070 5.990418 1.163445
O 4.305150 4.318933 3.206316
O 1.582040 0.174619 4.882451
O 3.292453 1.535411 6.188117
O 3.864181 8.812486 1.262498
O 4.505261 1.496865 3.305369
O 0.569342 2.958142 7.864252
O 2.100166 1.862587 2.342950
O 2.153768 7.451694 -0.043169
O 4.823276 2.630966 0.666815
O 0.622944 6.356139 5.478133
O 4.858775 8.995832 -1.737345
O 3.346054 7.124519 3.801998
O 2.474234 1.675169 -0.470740
O 4.876878 6.028963 -1.719303
O 1.782150 2.996687 4.981504
O 0.587446 -0.008726 7.882294
O 3.310556 4.502279 6.206159
O 2.135665 4.484826 -0.061211
O 5.197345 2.818383 -2.146875
