112

Li 7.487655 7.095143 10.775727
Li 8.848110 7.261628 1.981100
Li 7.489441 11.559502 9.444704
Li 5.110615 3.094653 8.658768
Li 5.636249 7.286635 7.204859
Li 3.803361 9.200379 3.169460
Li 6.366787 7.601566 -1.400125
Li 6.304402 3.167270 -0.091671
Li 2.441866 8.511964 12.146428
Li 0.067188 4.963230 9.885629
Li 2.428193 4.059288 13.469730
Li 0.604962 9.174072 8.443293
Li 3.193283 4.958000 4.630217
Li 1.279816 1.116127 2.317043
Li 1.203647 5.594514 0.999680
Li 8.253502 11.931523 0.779862
Mn 8.834699 8.340461 7.872906
Mn 8.783909 12.817331 6.568910
Mn 10.051625 8.998502 -1.027372
Mn 2.605143 6.824261 -1.908815
Mn 3.728615 6.337469 10.277751
Mn 3.778173 10.771534 8.954047
Mn 7.639468 5.420501 -3.276045
Mn 1.258422 6.683774 6.876600
Mn 6.283160 4.730814 5.693463
Mn 5.005151 10.879031 0.174726
Mn 1.861174 1.998774 8.075792
Mn 4.460141 6.659005 1.650630
Mn 6.909283 8.964577 4.223899
Mn 2.611763 2.362849 -0.589727
Mn 7.674454 9.879861 -4.614324
Mn 9.497100 4.768525 0.431183
P 9.438005 12.489398 -4.995494
P 3.180406 4.907260 7.746114
P 3.752006 9.165956 6.307807
P 6.907679 9.024225 1.103708
P 8.242765 11.864039 3.907897
P 1.848984 2.076447 4.949215
P 5.671770 4.473049 11.154218
P 9.458571 8.018312 -3.662099
P 6.340236 4.768311 2.544749
P 8.807957 7.202130 5.116509
P 1.287445 6.734420 3.733480
P 0.630483 5.920845 12.520702
P 5.709562 8.906174 9.822777
P 4.415861 9.459758 -2.300287
P 0.655882 1.445068 13.841977
P 4.382842 5.027845 -0.970004
O 8.977016 11.904699 2.393102
O 1.310978 5.843930 11.005392
O 6.556644 3.284898 6.843973
O 8.341306 11.589832 -5.597309
O 0.472837 4.654931 13.219651
O 3.330494 9.545763 -3.219042
O 7.360626 6.429899 6.066962
O 3.337598 5.103048 -1.925031
O 6.827504 8.748956 10.694926
O 1.701237 6.202403 4.943478
O 3.910712 4.921008 6.230487
O 5.938301 3.630092 1.765495
O 1.001196 2.002268 6.446004
O 8.698658 8.069004 -2.156358
O 9.682305 4.869781 -3.019706
O 6.823689 4.310241 11.995129
O 8.335968 7.130742 -4.248292
O 6.406637 8.317741 8.493780
O 4.034754 8.233525 10.459542
O 0.850553 1.159765 4.273341
O 1.965387 3.377782 4.342507
O 8.579107 8.685798 0.893747
O 6.030636 5.771976 -1.545522
O 4.220605 5.886830 8.311830
O 3.157550 3.632621 8.374841
O 1.805087 2.392992 14.336042
O 8.621682 12.540975 -3.501396
O 3.514266 10.629138 2.086325
O 9.278462 12.812207 4.515881
O 4.932595 5.489521 3.010981
O 5.918219 8.082182 0.449086
O 4.176667 10.367411 6.981864
O 9.691397 9.305177 -4.335975
O 6.776079 4.269905 3.758068
O 0.842087 5.615765 2.942042
O 5.547436 5.849381 10.998582
O 7.019157 10.320648 0.485241
O 1.798073 6.854742 13.009865
O 6.352396 3.917390 9.799766
O 4.018799 3.765440 11.795523
O 3.556377 5.603529 0.329733
O 5.136559 8.414240 5.921881
O 0.082123 1.387416 9.766954
O 6.053453 8.970224 2.599290
O 4.607474 8.103527 -2.108908
O 4.559359 3.672010 -0.752092
O 3.328778 9.552111 5.041712
O 0.970700 2.508699 1.184413
O 6.047680 10.227014 -2.889059
O 1.371868 1.355820 12.334877
O 2.714462 7.566796 2.834670
O 0.947581 6.981028 -0.132825
O 9.256221 8.372972 5.832473
O 7.735416 5.631289 1.645812
O 3.638893 10.017643 -0.971532
O 10.001230 12.529439 -0.841203
O 8.210745 10.582272 4.526300
O 9.112077 6.913487 9.050971
O 9.087838 11.391937 7.743394
O 2.331478 8.375800 7.266379
O 8.405607 7.629532 3.856232
O 0.483241 9.091178 11.903630
O 1.491137 5.227860 8.038571
O 5.615461 10.284404 9.632122
