76

Mn 0.000000 1.546681 5.476736
Mn 0.000000 2.283930 9.855281
Mn 0.000000 14.128918 0.126378
Mn 0.000000 14.866167 4.504922
Mn 1.582533 4.906063 7.580591
Mn 1.582533 11.506785 2.401068
Mn 1.617684 3.300361 2.589761
Mn 1.617684 13.112487 7.391897
Mn 3.200217 5.922494 4.864452
Mn 3.200217 6.659743 0.485907
Mn 3.200217 9.753105 9.495751
Mn 3.200217 10.490354 5.117207
Mn 4.782750 3.300361 2.589761
Mn 4.782750 13.112487 7.391897
Mn 4.817902 4.906063 7.580591
Mn 4.817902 11.506785 2.401068
O 0.000000 0.289096 3.722041
O 0.000000 0.843456 8.448645
O 0.000000 3.039069 4.147299
O 0.000000 4.125074 1.244064
O 0.000000 4.510021 6.210788
O 0.000000 5.298330 8.960196
O 0.000000 11.114518 1.021463
O 0.000000 11.902827 3.770871
O 0.000000 12.287774 8.737595
O 0.000000 13.373780 5.834359
O 0.000000 15.569392 1.533013
O 0.000000 16.123752 6.259618
O 1.224320 1.409979 1.738885
O 1.224320 15.002870 8.242774
O 1.282628 6.297232 0.937517
O 1.282628 10.115616 9.044141
O 1.299461 5.138321 4.072147
O 1.299461 11.274527 5.909511
O 1.900756 3.068103 9.062977
O 1.900756 13.344745 0.918682
O 1.917589 1.909192 5.928347
O 1.917589 14.503657 4.053312
O 1.975897 6.796446 6.729714
O 1.975897 9.616403 3.251945
O 3.200217 2.908094 3.969366
O 3.200217 3.696403 1.219958
O 3.200217 4.081350 6.234893
O 3.200217 5.167356 9.138129
O 3.200217 7.362968 3.457816
O 3.200217 7.917328 8.712870
O 3.200217 8.495520 1.268789
O 3.200217 9.049880 6.523842
O 3.200217 11.245493 0.843530
O 3.200217 12.331498 3.746765
O 3.200217 12.716445 8.761700
O 3.200217 13.504754 6.012292
O 4.424537 6.796446 6.729714
O 4.424537 9.616403 3.251945
O 4.482845 1.909192 5.928347
O 4.482845 14.503657 4.053312
O 4.499678 3.068103 9.062977
O 4.499678 13.344745 0.918682
O 5.100974 5.138321 4.072147
O 5.100974 11.274527 5.909511
O 5.117807 6.297232 0.937517
O 5.117807 10.115616 9.044141
O 5.176115 1.409979 1.738885
O 5.176115 15.002870 8.242774
P 0.000000 0.537307 2.147674
P 0.000000 4.588622 4.663471
P 0.000000 5.557374 0.520184
P 0.000000 10.855474 9.461474
P 0.000000 11.824226 5.318188
P 0.000000 15.875541 7.833985
P 3.200217 2.649050 5.511013
P 3.200217 3.617802 9.654300
P 3.200217 7.669117 7.138503
P 3.200217 8.743732 2.843156
P 3.200217 12.795046 0.327358
P 3.200217 13.763798 4.470645
