70

Mn 7.848996 -0.614407 -1.235172
Mn 6.342233 5.998341 -5.246877
Mn 9.610666 0.395526 3.182740
Mn 4.372958 4.736714 -0.958101
Mn 0.654157 6.804940 -3.174960
Mn 2.415826 7.814872 1.242951
Mn 5.891864 2.463751 0.965880
Mn 3.922589 1.202124 5.254656
P 2.808856 0.569052 2.929184
P 7.455967 6.631413 -2.921405
P 0.007391 0.203732 1.886955
P 10.257432 6.996734 -1.879175
P 7.199038 3.024129 3.254186
P 3.906945 8.261613 -5.192171
P 2.462829 7.541575 -1.298716
P 5.062990 5.989973 1.050521
P 9.564782 4.107705 -0.344403
P 5.201832 1.210492 -1.042742
P 3.065784 4.176337 -3.246407
P 7.801994 -0.341110 1.306495
P 0.700040 3.092761 0.352183
P 6.357877 -1.061148 5.199950
O 0.758509 1.399639 0.708760
O 0.280322 6.727014 2.089288
O 3.844299 4.168014 -2.227831
O 6.943218 1.021109 -1.295676
O 5.816366 5.805302 2.064826
O 2.394732 3.841914 0.126505
O 4.082659 5.177756 -4.361916
O 1.375887 4.562419 -2.984801
O 9.284480 6.721495 -2.819857
O 10.217809 0.547415 -4.175510
O 1.728237 7.764642 -0.130440
O 3.748826 1.562898 1.801865
O 6.445918 0.439126 1.325066
O 9.984500 0.473452 -2.081509
O 1.671842 -0.450076 6.375195
O 7.360904 6.190987 -3.986828
O 8.888936 2.638046 2.992580
O 4.175956 -0.175949 -0.071532
O 0.047013 6.653051 4.183289
O 7.352405 -0.378038 3.992855
O 6.515996 5.637567 -1.794085
O 7.126661 -0.817964 -2.581701
O 1.074881 6.933923 -1.731118
O 0.082786 8.902210 -3.537178
O 2.903918 1.009478 3.994608
O 2.912417 7.578504 -3.985075
O 9.189941 0.266543 1.738897
O 0.980342 0.478971 2.827636
O 9.506313 5.800827 -0.700981
O 3.818904 6.761340 -1.317287
O 8.592980 7.650541 -6.367415
O 8.536585 -0.564177 0.138219
O 4.609603 -0.738700 5.376293
O 5.655219 7.939166 -5.368514
O 4.448456 1.395163 -2.057047
O 6.182164 2.022709 4.369695
O 7.870091 3.358551 -0.118726
O 6.420523 3.032451 2.235610
O 5.086363 2.411979 -0.464663
O 7.070923 -1.926972 2.189707
O 7.496225 4.519209 -5.306228
O 5.178459 4.788487 0.472442
O 10.182036 -1.701745 3.544957
O 3.193899 9.127437 -2.181928
O 2.768597 2.681257 5.314007
O 6.088867 7.376415 0.079311
O 3.138161 8.018429 2.589480
O 3.321604 6.179357 1.303455
