34

O 0.322389 4.398157 3.129727
O 0.967438 1.982939 1.852180
O 0.775256 5.311334 7.348577
O 1.477060 4.087115 5.381519
O 0.149044 0.861076 6.223994
O 1.518908 2.994402 7.087411
O 3.055451 0.465416 2.733442
O 3.683401 2.425278 4.665817
O 2.221541 0.557371 4.692724
O 3.711837 4.587178 7.613068
O 2.162689 3.956929 10.173820
O 5.569258 4.374834 5.937646
O 1.763431 -0.013175 9.068876
O 5.170001 0.404730 4.832702
O 3.620853 -0.225519 7.393455
O 5.111149 3.804288 10.313798
O 3.649289 1.936381 10.340706
O 4.277238 3.896243 12.273080
O 5.813782 1.367257 7.919112
O 7.183645 3.500583 8.782528
O 5.855629 0.274544 9.625003
O 6.557434 -0.949675 7.657945
O 6.365251 2.378720 13.154343
O 7.010300 -0.036498 11.876795
P 0.042200 4.649854 4.427501
P 2.009436 4.356638 6.987808
P 5.144740 3.341189 4.754516
P 3.541344 0.924523 4.279101
P 3.791345 3.437136 10.727421
P 2.187950 1.020470 10.252006
P 5.323254 0.005022 8.018714
P 7.290490 -0.288195 10.579021
Ti 0.000000 3.442896 1.273745
Ti 0.000000 0.000000 4.386274
