56

Fe 1.095814 1.234138 1.410291
Fe 3.172273 7.404777 5.837593
Fe 5.363901 3.085319 7.444315
Fe 7.440360 5.553596 3.017012
Li 1.309330 7.476143 3.415239
Li 2.958758 1.162772 7.842542
Li 5.577417 5.482230 5.439366
Li 7.226845 3.156685 1.012064
O 0.344742 1.947410 5.797340
O 0.783646 3.347243 1.206458
O 0.885696 1.065481 8.113962
O 1.056565 5.336500 2.820759
O 1.102882 6.964408 5.504306
O 1.182952 4.628791 6.518229
O 1.349023 1.196516 3.598352
O 1.636786 7.844290 1.381292
O 1.945070 5.491896 0.442199
O 2.323017 3.147018 4.869502
O 2.631301 0.794625 5.808595
O 2.919064 7.442399 8.025655
O 3.085136 4.010124 2.090927
O 3.165205 1.674507 1.077003
O 3.211522 3.302415 7.248061
O 3.382391 7.573434 3.686659
O 3.484441 5.291672 5.633760
O 3.923345 6.691505 1.370038
O 4.612829 2.372047 3.057265
O 5.051734 0.972215 7.648148
O 5.153783 3.253977 0.740643
O 5.324652 7.621873 6.033847
O 5.370969 5.993964 3.350299
O 5.451039 8.329581 2.336376
O 5.617110 3.122942 5.256253
O 5.904873 5.114082 7.473313
O 6.213157 7.466476 8.412406
O 6.591105 1.172439 3.985104
O 6.899388 3.524833 3.046011
O 7.187151 5.515973 0.828950
O 7.353223 0.309334 6.763679
O 7.433292 2.644951 7.777602
O 7.479609 1.017042 1.606544
O 7.650478 5.384938 5.167946
O 7.752528 7.666700 3.220845
O 8.191432 6.266868 7.484568
P 0.239371 5.857919 6.042763
P 1.611339 4.509151 1.688246
P 1.709437 1.651527 4.974712
P 2.558650 6.987388 0.547409
P 2.656748 4.129764 6.115548
P 4.028716 2.780996 1.615461
P 4.507459 7.100454 2.811842
P 5.879427 8.449222 7.166360
P 5.977524 2.667930 3.879893
P 6.826737 5.970985 8.307196
P 6.924835 0.189693 2.739057
P 8.296803 1.538461 7.239145
