24

Co 4.269952 6.943544 0.386456
Co 1.601849 8.588259 3.809434
Co 3.734357 1.766277 3.535112
Co 1.066254 3.410991 6.958090
P 3.702153 4.160949 1.609829
P 4.302156 9.338217 2.311739
P 1.634053 6.193586 5.734717
P 1.034050 1.016318 5.032807
O 1.938217 1.572336 3.905573
O 3.886813 5.694332 1.732413
O 4.034658 3.523338 2.982699
O 2.224835 3.829842 1.254065
O 1.218709 9.837471 5.155391
O 0.443268 9.007110 2.418208
O 3.111371 6.524693 6.090481
O 1.366554 1.653930 6.405677
O 4.606320 3.604931 0.482595
O 1.301549 6.831198 4.361847
O 3.397989 8.782199 3.438973
O 1.449394 4.660204 5.612133
O 4.892938 1.347425 4.926338
O 0.729886 6.749604 6.861951
O 4.117497 0.517064 2.189155
O 3.969652 8.700605 0.938869
