36

Li 6.228510 6.782162 4.546320
Li 2.478139 2.698420 1.523038
Fe 3.126793 8.426632 1.834897
Fe 0.535981 5.605523 4.738311
Fe 8.170668 3.875059 1.331047
Fe 5.579856 1.053950 4.234462
P 5.754756 1.665982 1.373036
P 7.572338 3.645129 4.359782
P 2.951894 7.814600 4.696323
P 6.180633 6.730028 1.593026
P 2.526017 2.750554 4.476332
P 1.134311 5.835453 1.709576
O 3.429558 8.504232 5.913704
O 6.510153 5.249321 1.123445
O 7.176839 2.146809 4.218297
O 4.107806 6.660169 4.464892
O 6.304598 4.677792 4.589099
O 7.222592 2.196629 1.266773
O 0.065265 5.767937 6.495878
O 8.641384 3.712645 -0.426520
O 2.402051 4.802790 1.480259
O 0.486397 5.299454 2.905681
O 5.277091 0.976350 0.155655
O 8.220252 4.181128 3.163678
O 7.182951 6.985839 2.728428
O 2.919583 8.875975 3.597444
O 2.196496 4.231261 4.945913
O 6.343691 7.743184 0.479654
O 4.044064 2.564022 4.029217
O 4.662585 6.916560 2.040141
O 5.787066 0.604606 2.471914
O 2.362958 1.737398 5.589705
O 1.484057 7.283953 4.802585
O 1.523698 2.494743 3.340931
O 1.529810 7.333773 1.851061
O 4.598843 2.820413 1.604467
