34

Fe 2.581662 3.612688 3.082961
Fe 2.670518 10.420296 3.241531
P 1.115689 9.265154 0.669630
P 0.021019 1.699410 3.962598
P 5.154531 5.486455 2.289351
P 0.097649 12.294063 4.035141
P 0.767774 4.466594 0.584679
P 4.484405 11.274201 5.739813
P 5.231160 8.507018 2.361895
P 4.136490 2.457546 5.654863
O 0.978948 5.215417 6.588544
O 3.285349 10.696971 5.080268
O 4.844180 0.173226 2.876804
O 3.738081 5.304542 2.877174
O 4.261492 11.428217 2.559665
O 1.514098 12.112150 3.447319
O 1.111619 9.293705 3.874241
O 1.866210 8.124662 -0.007838
O 0.270051 10.030683 6.895274
O 4.273231 12.023025 -0.264052
O 5.212237 8.716747 0.766601
O 1.429727 1.910678 3.383415
O 3.385970 1.317054 6.332331
O 3.822452 8.718285 2.941078
O 5.133795 5.361331 0.696606
O 4.140561 2.486097 2.450252
O 2.031890 10.226320 1.355120
O 0.039943 1.909139 5.557892
O 3.220290 3.418712 4.969372
O 0.990687 4.620609 3.764827
O 0.408000 6.980834 3.447689
O 4.982128 3.223075 -0.570782
O 0.118384 12.168939 5.627887
O 1.966831 3.889363 1.244224
