46

Li 5.039108 8.441458 6.248686
Li 0.296494 5.111693 0.591211
Li 5.039108 11.888269 6.248686
Li 0.296494 1.664883 0.591211
Mo 2.667801 0.000000 3.419948
Mo 2.667801 6.776576 3.419948
P 0.033924 1.927150 4.512447
P 0.033924 4.849426 4.512447
P 2.440702 10.164864 7.744930
P 5.301678 11.626002 2.327450
P 3.537376 7.822920 0.315669
P 3.537376 12.506807 0.315669
P 2.894900 3.388288 -0.905033
P 1.798226 5.730232 6.524228
P 5.301678 8.703725 2.327450
P 1.798226 1.046344 6.524228
O 2.555006 6.681161 5.519812
O 4.600009 12.563067 3.379438
O 4.328704 13.051739 -0.928426
O 0.735587 5.786491 3.460460
O 2.780595 13.457737 1.320084
O 0.360393 3.388288 3.918468
O 1.481478 11.764041 3.807545
O 0.735587 0.990085 3.460460
O 2.428809 8.913203 0.023375
O 4.556577 11.595168 1.051578
O 1.481478 8.565687 3.807545
O 1.006897 6.275163 7.768323
O 1.037609 10.164864 7.357483
O 0.779025 1.957983 5.788319
O 4.556577 8.734559 1.051578
O 1.592272 3.388288 0.065624
O 3.743330 10.164864 6.774273
O 4.975209 10.164864 2.921428
O 2.428809 11.416524 0.023375
O 3.854124 1.789111 3.032352
O 1.006897 0.501412 7.768323
O 0.779025 4.818593 5.788319
O 4.328704 7.277988 -0.928426
O 2.906793 4.639948 6.816522
O 3.854124 4.987465 3.032352
O 2.906793 2.136627 6.816522
O 2.780595 6.871990 1.320084
O 4.297993 3.388288 -0.517586
O 4.600009 7.766660 3.379438
O 2.555006 0.095414 5.519812
