36

Ni 0.394741 3.549827 0.005727
Ni 4.611326 4.855312 2.512942
Ni 2.166552 -0.309095 2.404220
Ni 6.650219 5.651751 -1.788759
Ni 3.872233 0.833953 -1.837346
Ni 8.167568 1.798400 1.005061
O 0.678351 5.939808 4.149573
O 2.802177 -0.842173 6.268665
O 0.607810 3.055855 3.948115
O 0.091264 2.312657 1.421192
O 2.437033 6.691435 -0.049333
O 3.426602 4.897681 1.330092
O 2.502437 4.339968 -0.444681
O 3.218290 1.359031 2.441605
O 5.064085 5.933249 -0.680131
O 3.422519 5.272647 -3.497008
O 5.213601 3.160167 2.822448
O 2.467530 2.071877 -2.015994
O 4.939479 0.753839 3.995417
O 3.004002 -0.861328 1.089906
O 6.137359 1.314850 1.869855
O 6.300894 3.835502 -1.787932
O 6.485214 6.068232 -5.216426
O 5.405825 1.348021 -1.006630
O 7.936761 2.442735 -0.521182
O 8.517758 -0.028819 -3.876399
O 0.044335 8.068572 -1.380816
O 6.694693 -1.535792 0.503449
O 7.862154 2.206161 -2.589802
O 8.551602 -2.054812 2.465545
P 0.712186 2.123017 5.148760
P 3.376662 5.462660 0.032550
P 2.474163 6.494500 -3.535212
P 4.878408 1.664731 2.776339
P 6.879686 2.458234 -1.461855
P 7.666963 -1.743554 -0.647574
