52

Ni 0.000000 0.000000 0.000000
Ni 0.000000 0.000000 6.440582
Ni 0.000000 5.964520 0.000000
Ni 0.000000 5.964520 6.440582
O 0.404898 7.796903 0.595625
O 0.404898 7.796903 5.844957
O 0.404898 10.096655 7.036207
O 0.404898 10.096655 12.285539
O 1.040938 0.736248 8.018756
O 1.040938 0.736248 11.302989
O 1.040938 5.228271 1.578174
O 1.040938 5.228271 4.862407
O 1.599370 0.046344 1.114234
O 1.599370 0.046344 5.326348
O 1.599370 5.918175 7.554815
O 1.599370 5.918175 11.766930
O 2.138035 7.193079 9.660873
O 2.138035 10.700479 3.220291
O 2.186114 8.420255 7.564798
O 2.186114 8.420255 11.756947
O 2.186114 9.473303 1.124216
O 2.186114 9.473303 5.316365
O 2.860539 2.455736 7.564798
O 2.860539 2.455736 11.756947
O 2.860539 3.508784 1.124216
O 2.860539 3.508784 5.316365
O 2.908619 1.228560 9.660873
O 2.908619 4.735960 3.220291
O 3.447283 6.010864 1.114234
O 3.447283 6.010864 5.326348
O 3.447283 11.882695 7.554815
O 3.447283 11.882695 11.766930
O 4.005716 6.700768 8.018756
O 4.005716 6.700768 11.302989
O 4.005716 11.192791 1.578174
O 4.005716 11.192791 4.862407
O 4.641756 1.832384 0.595625
O 4.641756 1.832384 5.844957
O 4.641756 4.132136 7.036207
O 4.641756 4.132136 12.285539
P 1.170051 8.946779 0.000000
P 1.170051 8.946779 6.440582
P 2.531578 6.955310 8.136761
P 2.531578 6.955310 11.184985
P 2.531578 10.938249 1.696179
P 2.531578 10.938249 4.744403
P 2.515076 0.990790 8.136761
P 2.515076 0.990790 11.184985
P 2.515076 4.973729 1.696179
P 2.515076 4.973729 4.744403
P 3.876602 2.982260 0.000000
P 3.876602 2.982260 6.440582
