52

Li 0.000000 0.000000 0.000000
Li 0.000000 0.000000 8.737559
W 4.808920 3.205896 2.916405
W 6.478281 -1.793431 11.653964
W 4.412951 0.169543 11.653964
W 4.412951 0.169543 14.558713
W 7.552509 0.388392 11.653964
W 1.669362 2.987047 2.916405
W 2.743590 5.168870 5.821154
W 2.743590 5.168870 2.916405
W 7.552509 0.388392 14.558713
W 1.669362 2.987047 5.821154
W 6.478281 -1.793431 14.558713
W 4.808920 3.205896 5.821154
C 6.147917 -0.411836 13.106339
C 3.073954 3.787276 4.368780
Cl 3.477503 2.073073 7.379445
Cl 2.083396 0.950495 10.444738
Cl 6.921484 4.337713 15.767939
Cl 1.928616 1.279312 4.368780
Cl 3.477503 2.073073 1.358114
Cl 5.336365 1.503556 4.368780
Cl 4.817109 5.128131 13.106339
Cl 5.744368 1.302366 10.095673
Cl 7.138475 2.424944 7.030380
Cl 8.297858 -1.137323 16.117005
Cl 3.885506 1.871883 13.106339
Cl 8.559778 -2.609658 13.106339
Cl 0.924013 4.512762 7.379445
Cl 4.820355 4.775978 1.358114
Cl 0.519256 4.361800 13.106339
Cl 2.300386 -0.962274 7.030380
Cl 0.216991 6.073606 15.767939
Cl 7.293255 2.096127 13.106339
Cl 2.300386 -0.962274 1.707179
Cl 0.662093 5.985097 4.368780
Cl 4.404762 -1.752692 4.368780
Cl 8.297858 -1.137323 10.095673
Cl 4.401516 -1.400539 10.095673
Cl 0.216991 6.073606 10.444738
Cl 6.631162 4.097404 4.368780
Cl 5.744368 1.302366 16.117005
Cl 9.004880 -2.698166 1.707179
Cl 4.401516 -1.400539 16.117005
Cl 8.702615 -0.986360 4.368780
Cl 6.921484 4.337713 10.444738
Cl 2.083396 0.950495 15.767939
Cl 9.004880 -2.698166 7.030380
Cl 7.138475 2.424944 1.707179
Cl 2.590709 -0.721965 13.106339
Cl 4.820355 4.775978 7.379445
Cl 0.924013 4.512762 1.358114
