20

Li 4.021271 2.930190 6.102846
Li 1.340424 5.166062 2.278625
O 5.041285 3.861401 4.008493
O 2.360438 3.041534 3.096587
O 0.320409 4.234851 4.372977
O 3.001257 5.054718 5.284883
O 0.805670 5.341214 6.652672
O 0.924152 1.009112 4.304802
O 4.556025 2.755038 1.728798
O 3.486517 7.293042 6.485746
O 1.875178 0.803209 1.895724
O 4.437542 7.087140 4.076668
O 3.605000 5.143396 2.057857
O 1.756695 2.952856 6.323613
Si 4.119063 6.378970 5.469861
Si 1.242632 1.717281 2.911609
Si 1.438216 4.375422 5.686079
Si 3.923479 3.720829 2.695392
Fe 4.021271 7.013238 2.211440
Fe 1.340424 1.083014 6.170031
