36

Li 2.172994 3.712960 4.816685
Li 3.058271 4.965011 6.452361
Mn 0.000000 0.000000 4.878785
Mn 0.000000 5.112988 1.529741
P 2.700876 8.795868 8.856009
P 2.700876 6.310966 10.483638
P 0.947775 7.752372 5.712446
P 2.530389 2.367016 0.785411
P 4.283491 0.925599 5.556600
P 2.530389 -0.117897 2.413047
P 0.947775 3.481442 8.509936
P 4.283491 5.196529 2.759110
O 1.160289 6.493466 10.745349
O 0.086143 8.487583 6.909813
O 4.070976 -0.456006 2.253250
O 0.000000 2.377243 8.200459
O 1.758082 3.524869 1.692516
O 2.181207 0.854486 1.234542
O 0.000000 7.848734 4.616593
O 1.665907 3.990236 7.311560
O 3.473184 8.147575 7.615129
O 3.565358 4.687735 3.957485
O 5.145122 0.190388 4.359233
O 1.160289 9.133977 9.015796
O 3.565358 2.397464 5.457630
O 1.665907 6.280507 5.811416
O 2.010265 2.411990 9.193874
O 3.221000 -0.043007 6.207605
O 0.086143 4.573468 9.473587
O 3.050058 7.823485 10.034504
O 3.473184 5.153102 9.576530
O 4.070976 2.184505 0.523697
O 2.010265 8.720978 5.061441
O 5.145122 4.104503 1.795459
O 1.758082 0.530396 3.653917
O 3.221000 6.265981 2.075172
