89

Li 7.175204 20.306755 10.204575
Li 5.297633 9.375876 5.309434
Li 2.521166 6.916339 6.410447
Li 12.774434 25.329022 12.305429
Li 3.442076 12.332018 6.704859
Li 0.660202 9.831438 7.813295
Li 10.918256 14.421933 7.410264
Li 8.109716 11.897926 8.517754
Li 9.036991 17.373069 8.807003
Li 6.261480 14.835551 9.925040
Li 16.512230 19.428000 9.514583
Li 13.699576 16.909669 10.621151
Li 4.376689 3.934627 5.019185
Li 14.652307 22.368990 10.917491
Li 11.850618 19.865860 12.013039
Li 9.960974 22.805473 13.407926
Li 15.560624 13.962460 9.230330
Nb 0.010478 0.004999 0.008385
Nb 5.536865 18.829459 8.402874
Nb 2.799590 16.381887 9.501421
Nb 3.742632 7.967861 3.503225
Nb 0.936728 5.454904 4.608496
Nb 11.201701 10.046594 4.207311
Nb 8.409365 21.409046 11.607686
Nb 1.861300 11.005504 9.199690
Nb 9.323206 12.987050 5.601885
Nb 6.529410 10.479802 6.709000
Nb 13.992878 12.557583 7.412286
Nb 7.462125 15.944300 7.002358
Nb 4.660772 13.425962 8.104755
Nb 15.002499 18.006159 7.722125
Nb 12.138076 15.510629 8.812309
Nb 13.065636 20.968492 9.103081
Nb 10.247996 18.464084 10.202416
Nb 15.865528 23.458677 12.308455
O 0.886454 3.684643 2.110830
O 0.784914 1.843272 3.457580
O 4.090087 5.467383 3.311131
O 2.618524 5.831957 4.106774
O 2.863869 4.280002 5.476101
O 6.478766 8.626653 4.189232
O 2.197252 8.391345 4.705683
O 6.416216 6.896687 5.555891
O 0.762648 8.792945 5.503730
O 5.024952 7.451604 6.339178
O 9.696605 10.492371 5.405040
O 0.880510 7.086770 6.890255
O 4.600002 11.579811 5.583416
O 0.340016 11.354707 6.099488
O 8.223682 10.852395 6.215459
O 4.496162 9.808253 6.940875
O 8.332845 9.148297 7.596175
O 12.058366 13.626767 6.282205
O 3.164492 10.413073 7.723721
O 7.810487 13.436006 6.799589
O 2.747099 14.522669 6.984475
O 11.945911 11.851326 7.647206
O 6.371953 13.795919 7.615572
O 2.672426 12.585197 8.364651
O 10.623056 12.483905 8.436453
O 15.091512 15.500396 7.471992
O 6.502492 12.104317 8.992523
O 10.203733 16.591408 7.686968
O 1.287911 13.339028 9.168052
O 5.935905 16.376155 8.202856
O 13.835925 15.879409 8.321185
O 10.108876 14.844290 9.045705
O 4.584269 16.783945 9.054497
O 13.944820 14.173406 9.701139
O 8.755577 15.427538 9.834231
O 13.422579 18.457267 8.906117
O 4.614175 15.060283 10.398041
O 8.322031 19.535272 9.072332
O 11.964164 18.825182 9.714843
O 8.231406 17.789771 10.444078
O 16.212329 17.493899 10.540538
O 12.037997 17.150179 11.090816
O 15.803449 21.624711 9.787024
O 6.891524 18.381845 11.233125
O 11.542506 21.418129 10.295175
O 15.704445 19.834308 11.156846
O 10.098431 21.771741 11.108145
O 14.353733 20.447371 11.929262
O 10.222254 20.067693 12.492978
O 13.932478 24.574271 11.182759
O 13.832214 22.793670 12.542730
O 12.477186 23.396648 13.328988
O 15.686864 26.789306 13.216439
O 15.806304 25.119991 14.596971
