36

Li 6.319877 3.049910 2.558995
Li 4.560031 7.630606 4.440225
Co 0.043331 0.000934 0.040035
Co 3.583305 4.581630 2.293039
P 2.462805 6.512989 -0.008684
P 1.467076 5.372350 4.739043
P 4.728713 2.639479 4.765035
P 2.159560 0.791654 4.810088
P 5.844563 3.842599 -0.091857
P 6.151195 7.220175 2.234185
P 1.163831 1.932302 2.341757
P 5.035345 8.423295 -0.124981
O 4.319418 0.529776 0.193050
O 5.878247 8.290739 -1.398591
O 0.673089 4.121628 5.009281
O 2.953547 8.702324 4.539849
O 1.124424 0.844323 1.366700
O 2.314911 2.949648 2.236391
O 3.157785 2.069476 4.889178
O 4.772392 3.662294 3.708323
O 6.865519 2.559372 -0.058065
O 5.001661 3.710043 1.181753
O 1.155947 1.188810 3.691038
O 6.560490 5.110472 -0.409888
O 2.470479 5.439320 3.583442
O 1.311725 7.530343 0.096682
O 2.470689 5.769506 5.858093
O 6.136391 7.970713 0.912580
O 5.011336 6.188154 2.414130
O 0.468852 6.650172 4.659952
O 1.156157 0.858624 5.965689
O 5.868572 1.607458 4.585089
O 4.743517 3.390017 -1.129418
O 2.502212 5.425019 0.966373
O 4.014389 7.140068 -0.158773
O 6.107516 8.242990 3.290897
