24

Fe 1.586827 5.197986 3.622149
Fe 3.661692 1.549698 0.998164
Fe 8.910211 1.549698 1.625821
Fe 6.835346 5.197986 4.249806
P 9.484210 3.368399 4.258166
P 6.261347 7.016687 1.634181
P 1.012828 7.016687 0.989804
P 4.235691 3.368399 3.613789
O 3.830170 2.142647 4.463960
O 4.072746 3.003738 2.118931
O 6.424292 6.652026 3.129039
O 1.175773 6.652026 4.742916
O 1.899617 0.946271 1.315729
O 10.037425 0.080956 1.278941
O 9.321265 3.003738 0.505054
O 3.348902 4.594559 3.939714
O 8.597421 4.594559 3.932241
O 9.078689 2.142647 3.407995
O 7.148137 0.946271 1.308256
O 0.459613 3.729243 3.969024
O 6.666868 5.790935 0.784010
O 1.418349 5.790935 1.839975
O 5.708132 3.729243 3.902931
O 4.788906 0.080956 1.345039
