76

Li 4.541829 19.789953 1.628466
Li 0.709010 6.596651 2.572498
Ni 1.068876 2.562456 0.150632
Ni 4.181962 23.824149 4.050331
Ni 4.257433 11.931257 0.349937
Ni 0.655446 18.017433 1.440038
Ni 4.595392 8.369171 2.760925
Ni 0.993406 25.124560 3.851027
Ni 4.595392 4.824131 2.760925
Ni 4.257433 1.262045 0.349937
Ni 0.655446 21.562474 1.440038
Ni 4.181962 15.755758 4.050331
Ni 0.993406 14.455347 3.851027
Ni 1.068876 10.630846 0.150632
P 1.651604 2.915218 3.168278
P 2.436520 6.596651 4.646829
P 1.519861 13.826581 0.698141
P 3.599235 23.471386 1.032686
P 3.599235 16.108521 1.032686
P 3.972884 8.785341 -0.251147
P 3.730978 0.633279 3.502822
P 1.519861 25.753326 0.698141
P 1.277954 21.978643 4.452111
P 2.814318 19.789953 -0.445866
P 3.730978 12.560024 3.502822
P 3.972884 4.407961 -0.251147
P 1.651604 10.278084 3.168278
P 1.277954 17.601264 4.452111
O 4.611738 11.918460 -1.604347
O 3.449386 6.596651 3.438032
O 4.523041 0.597102 2.171110
O 0.720609 2.516332 2.098845
O 2.590402 18.551419 4.779653
O 4.688301 8.068258 0.802062
O 4.948306 8.861598 -1.496972
O 4.688301 5.125044 0.802062
O 3.072324 25.670525 3.940437
O 2.547051 17.178761 1.429318
O 2.547051 22.401145 1.429318
O 0.720609 10.676970 2.098845
O 0.746155 9.947486 4.422003
O 3.072324 13.909382 3.940437
O 0.302532 22.054900 5.697935
O 4.504684 23.140788 -0.221040
O 2.590402 21.028488 4.779653
O 1.801453 19.789953 0.762932
O 2.368711 1.536043 3.489381
O 2.068694 23.260900 4.043460
O 0.727798 13.790405 2.029853
O 2.368711 11.657259 3.489381
O 3.182145 10.067598 0.157503
O 4.611738 1.274842 -1.604347
O 2.882128 24.850561 0.711582
O 0.884378 6.596651 4.427297
O 2.660437 5.358117 -0.578689
O 0.562538 18.318346 3.398902
O 0.562538 21.261561 3.398902
O 2.882128 14.729346 0.711582
O 0.746155 3.245816 4.422003
O 2.703788 9.207843 2.771645
O 0.639101 14.468145 5.805311
O 2.178515 0.716080 0.260527
O 4.948306 4.331704 -1.496972
O 2.068694 16.319007 4.043460
O 0.302532 17.525006 5.697935
O 4.523041 12.596200 2.171110
O 3.182145 3.125704 0.157503
O 0.639101 25.111762 5.805311
O 4.504684 16.439118 -0.221040
O 4.530229 23.870272 2.102118
O 4.530229 15.709634 2.102118
O 2.660437 7.835186 -0.578689
O 0.727798 25.789502 2.029853
O 2.703788 3.985459 2.771645
O 2.178515 12.477223 0.260527
O 4.366461 19.789953 -0.226334
