60

Na 3.347736 1.362257 3.053206
Na 0.020033 8.817364 7.624093
Na 6.635373 1.362257 3.053206
Na 6.635373 3.727553 8.391855
Na 0.020033 6.452068 2.285444
Na 3.347736 3.727553 8.391855
Na 3.307670 6.452068 2.285444
Na 3.307670 8.817364 7.624093
Ca 1.663851 9.288293 0.645571
Ca 4.991554 0.891328 10.031728
Ca 4.991554 4.198483 4.693079
Ca 1.663851 5.981138 5.984220
V 4.991554 7.039350 10.322226
V 1.663851 1.949540 5.693723
V 1.663851 3.140270 0.355074
V 4.991554 8.230081 4.983576
P 1.663851 6.471938 9.714837
P 4.991554 9.333134 1.898136
P 4.991554 3.707683 0.962462
P 1.663851 8.797493 4.376187
P 1.663851 4.243324 3.440514
P 1.663851 0.846486 8.779164
P 4.991554 5.936297 7.236785
P 4.991554 1.382128 6.301112
O 1.663851 0.165795 4.368521
O 2.891434 7.033487 10.540064
O 3.763971 1.943676 5.475885
O 3.763971 3.146134 0.137235
O 6.219137 3.146134 0.137235
O 6.224621 5.223479 6.655993
O 4.991554 7.441771 6.868899
O 4.991554 1.955515 7.740316
O 1.663851 8.224105 2.936983
O 3.758487 10.045952 1.317344
O 1.663851 4.423778 1.889401
O 4.991554 10.013825 6.308778
O 0.430784 4.956142 4.021306
O 4.991554 3.134295 2.401666
O 4.991554 7.827660 1.530249
O 6.224621 10.045952 1.317344
O 4.991554 5.755843 8.787898
O 1.663851 4.924015 9.707170
O 1.663851 1.702287 1.187433
O 0.430784 0.133669 9.359955
O 1.663851 3.387523 6.526083
O 0.436268 7.033487 10.540064
O 6.219137 1.943676 5.475885
O 2.896918 0.133669 9.359955
O 1.663851 2.737850 3.808400
O 3.758487 5.223479 6.655993
O 4.991554 6.792097 4.151216
O 1.663851 0.666032 7.228051
O 4.991554 8.477334 9.489866
O 1.663851 7.045326 8.275633
O 2.891434 8.235944 5.201414
O 1.663851 2.351961 9.147050
O 2.896918 4.956142 4.021306
O 4.991554 5.255606 0.970129
O 0.436268 8.235944 5.201414
O 4.991554 9.513589 3.449248
