52

Li 6.531817 6.013835 3.011657
Li 2.375496 9.952602 3.949312
Li 0.834456 7.093778 4.783494
Li 6.966289 9.045621 1.332960
Li 3.470420 1.825387 2.252953
Li 7.528573 3.445266 1.416232
Li 1.838207 4.576807 3.197027
Li 5.011645 8.809482 3.854685
Co 0.669448 8.814513 0.633737
Co 3.561070 3.603331 6.525293
Co 4.821103 7.063743 -0.329693
Co 7.753982 1.714038 5.361660
P 4.452572 4.443446 1.270373
P 7.911162 6.356695 0.189295
P 3.945534 6.197180 4.893986
P 0.465286 4.287882 5.944735
P 3.773119 9.586360 1.151421
P 4.621750 1.053334 5.015069
P 8.166123 9.655804 3.842669
P 0.304759 0.856143 2.128130
O 7.830735 3.411213 4.777973
O 3.864737 7.041665 6.213610
O 2.452165 9.286861 0.297832
O 0.021431 4.914106 2.277381
O 4.745367 1.736873 3.705389
O 4.104732 10.210439 4.997889
O 5.859258 4.500732 1.910461
O 1.837047 4.242041 6.780079
O 6.540948 6.432399 -0.657754
O 3.558641 9.064981 2.523055
O 0.955004 9.071766 5.018219
O 0.715059 3.658619 4.621561
O 4.363376 4.735432 5.322741
O 8.103696 8.956672 5.226886
O 4.589851 3.632235 -0.044624
O 1.721602 0.875982 2.749726
O 2.522184 6.177393 4.285916
O 8.301923 5.728452 3.936759
O 0.592249 7.158556 1.343964
O 5.075669 6.814394 4.066640
O 6.778110 9.433873 3.195084
O 3.294734 3.846193 2.073634
O 3.597265 1.916633 5.871454
O 6.040787 1.110746 5.764103
O 7.571738 1.570049 0.900162
O 0.013721 0.565329 6.060666
O 4.965848 8.716590 0.475528
O 4.037269 5.924780 0.841677
O 7.635956 7.104893 1.467040
O 8.293280 9.932987 -0.029400
O 0.418531 1.487641 0.718559
O 4.138842 0.459774 0.983354
