34

O 0.081186 1.627270 5.961574
O 0.004485 2.603710 0.697366
O 0.194026 1.700736 3.407017
O 0.599118 8.324796 1.335406
O 1.316471 8.345041 4.818869
O 1.201034 4.147469 2.934794
O 2.159290 6.519889 0.506371
O 2.410674 3.951129 0.410293
O 2.859968 0.539349 2.910956
O 2.898282 1.249693 0.250231
O 3.399969 1.192017 5.314614
O 3.487200 7.193945 4.602251
O 3.666368 2.958645 2.738529
O 3.753599 5.427317 2.026166
O 4.255286 5.484993 7.090549
O 4.293600 4.774649 4.429823
O 4.742894 8.186429 6.930487
O 4.994278 2.284589 6.834409
O 5.952534 8.382769 4.405986
O 5.837097 4.109741 2.521911
O 6.554450 4.089496 6.005374
O 6.959542 5.936036 3.933763
O 7.149083 6.839010 6.643414
O 7.072382 5.862570 1.379206
P 0.027463 0.794026 4.595244
P 7.126106 5.029326 2.745536
P 0.615064 6.998944 0.684243
P 2.832040 0.054652 4.330314
P 3.131596 5.268968 0.537102
P 4.021972 1.033667 6.803678
P 4.321528 4.289953 3.010465
P 6.538504 2.763644 6.656537
Sb 1.788249 2.253900 1.823553
Sb 5.365319 6.489200 5.517227
