20

V 4.901668 3.926210 3.713415
V 3.171936 3.926210 8.561640
V 2.210467 1.944916 1.194324
V 0.480735 1.944916 6.042548
O 1.729205 1.191563 5.411314
O 4.420406 4.679564 9.192875
O 0.961997 1.191563 0.563089
O 3.653198 4.679564 4.344650
F 0.533929 5.222520 3.097363
F 4.848474 0.648607 6.658601
F 1.563335 2.618934 2.735464
F 1.127866 2.618934 7.583688
F 0.706688 3.773567 5.278679
F 3.819068 3.252193 7.020500
F 3.397889 2.097560 9.325510
F 1.984513 3.773567 0.430454
F 3.225130 0.648607 1.810376
F 4.254536 3.252193 2.172275
F 4.675715 2.097560 4.477285
F 2.157272 5.222520 7.945588
