112

Li 2.630351 8.839765 16.415961
Li 9.402589 7.282065 6.825970
Li 7.627180 6.394350 15.055275
Li 8.251858 5.577949 10.605986
Li 3.780374 2.850128 10.496444
Li 3.833988 5.009314 6.983552
Li 3.260272 7.529740 11.864726
Li 7.629701 10.818662 16.286604
Li 8.834913 11.942052 8.186650
Li 5.121728 7.934763 3.456761
Li 5.106439 3.513153 2.267134
Li 0.066731 5.932966 3.635423
Li 4.421737 9.214685 8.057304
Li 2.652737 4.418688 15.212859
Li 0.081104 1.492563 2.376687
Li 8.764235 9.756029 11.686067
Fe 7.551399 5.235095 4.505444
Fe 6.940664 7.773310 9.358446
Fe 3.174594 6.402712 1.315271
Fe 2.562255 7.213620 5.731536
Fe 1.941384 9.701648 10.581219
Fe 3.175251 1.967530 16.548302
Fe 8.150720 8.378339 17.587735
Fe 2.026464 3.017032 4.616286
Fe 0.773310 1.846026 12.734735
Fe 5.758029 9.252320 14.080629
Fe 7.003060 9.874846 5.851324
Fe 6.364387 3.562102 8.318977
Fe 0.727700 6.296359 13.960864
Fe 1.372702 5.501773 9.544565
Fe 5.685437 4.846513 12.845586
Fe 8.166080 12.814003 18.810552
P 5.481517 3.084889 5.197888
P 1.692461 8.333395 3.037563
P 4.821415 5.477525 10.059663
P 4.087934 6.839689 14.654650
P 1.694016 3.913823 1.830376
P 6.000203 7.308684 6.243425
P 4.098419 2.393339 13.427195
P 0.384966 2.788546 9.907506
P 1.014986 9.274738 7.460093
P 6.660315 5.926227 1.678178
P 5.368747 9.702873 11.127667
P 6.666156 10.351579 2.898360
P 9.051621 13.293064 15.689392
P 9.814934 12.394641 11.266862
P 9.084842 8.851007 14.472728
P 0.481538 5.036487 6.425347
O 8.377117 4.247766 9.122117
O 1.523516 0.820959 0.892801
O 4.338062 3.717873 13.962586
O 9.273931 7.506399 14.235699
O 1.993792 2.435617 9.326671
O 8.269590 9.158816 15.878131
O 7.410302 6.653556 17.009328
O 0.098965 3.210172 2.046622
O 5.668333 10.757762 15.388061
O 6.310803 6.316098 10.275922
O 1.647589 5.315566 7.533532
O 0.720135 4.559730 14.331994
O 9.717195 6.994751 11.022876
O 6.354131 4.615791 1.097345
O 3.394681 6.196021 10.337643
O 3.232962 1.695874 14.535442
O 3.885917 3.491791 5.733278
O 5.647472 6.349438 14.149580
O 5.490517 11.025305 11.699728
O 6.023856 8.231937 5.218417
O 0.351466 3.701421 5.920260
O 1.509124 5.253232 2.108337
O 1.126530 5.753718 5.252880
O 4.203375 9.448424 10.018183
O 1.004790 1.376532 4.065216
O 6.134343 3.757420 3.990172
O 2.804549 3.500705 2.787835
O 0.708413 8.962522 15.508715
O 0.993248 1.093150 6.469962
O 4.800852 4.498859 11.017139
O 1.322257 8.256605 11.518755
O 5.124459 10.842267 3.470420
O 0.516195 4.104319 10.501359
O 9.770600 11.389556 12.183668
O 9.194054 11.941847 15.428768
O 9.861262 11.800850 9.800301
O 8.302591 4.747829 14.699261
O 2.340533 8.040486 18.029616
O 5.347846 10.597517 7.158739
O 3.056023 2.218248 12.219478
O 7.813019 6.042652 2.793569
O 2.843102 7.925800 3.954368
O 4.783998 8.946886 12.279991
O 7.462052 11.077775 18.247488
O 6.353413 9.047534 2.298064
O 9.205685 7.551249 8.780021
O 4.839366 4.848205 8.610595
O 8.035329 9.237676 13.447721
O 5.121988 6.407220 2.272049
O 2.473576 8.581601 7.199468
O 2.998641 6.689767 13.482198
O 9.537087 13.376877 7.279388
O 7.978596 4.863433 12.294514
O 0.095985 7.643458 3.289448
O 7.430934 6.584916 6.006399
O 7.772722 10.441251 4.050682
O 2.394496 3.625767 16.839903
O 8.848309 10.405820 6.974893
O 3.263980 6.123772 15.762839
O 6.010200 8.029101 7.648822
O 6.644946 3.401870 6.306116
O 4.520244 6.459780 6.102683
O 6.973257 9.357439 10.527365
O 4.353601 8.158443 15.204198
