12

W 3.233740 3.151150 -3.196181
W 0.000006 -0.000000 2.257572
W 0.000013 3.232717 -1.618254
W 0.000000 3.232718 0.639327
O 4.980601 4.593487 -4.605866
O 1.221183 4.680214 -0.882907
O 1.486880 1.708799 2.728647
O 1.478783 4.416205 1.377876
O 5.246304 1.622072 -0.994310
O 1.486880 1.708799 0.844651
O 4.988711 1.886075 -3.255094
O 4.980613 4.593487 -2.721867
