95

Li 5.346258 1.886249 7.253793
Li 6.699221 6.801587 0.256550
Li 5.350965 4.243280 1.031324
Li 6.662156 2.270638 4.326730
Li 9.388813 -1.993995 -0.155039
Li 5.451743 -0.331688 4.955724
Li 0.224898 1.233531 10.194443
Li 9.284719 2.612944 6.763127
Li 1.412504 3.516584 1.521991
Li 5.245480 6.461217 3.329393
Li 1.308409 8.123524 8.440156
Li 3.998001 -0.672058 8.028568
Li 10.472324 4.895998 -1.909325
Li 4.035067 3.858891 3.958388
Ni 8.348605 4.972947 4.326273
Ni 8.333308 0.421192 -2.626320
Ni 2.724754 -0.167937 0.907973
Ni 2.348618 1.156582 3.958833
Ni 2.363915 5.708336 10.911437
Ni 7.972469 6.297466 7.377145
Ni 7.897546 1.725718 0.395685
Ni 2.799677 4.403811 7.889432
Ni 0.000000 4.551337 6.957028
P 0.523148 8.650903 11.057491
P 7.466191 3.690464 -1.921234
P 10.157131 2.014491 4.163780
P 3.174176 6.944597 6.153459
P 2.212624 6.049518 2.707591
P 3.231032 2.439065 10.206352
P 5.757267 4.757137 5.970123
P 4.939956 1.372392 2.314994
P 10.174075 -2.521374 -2.772373
P 2.143606 1.544626 6.784374
P 8.484599 0.080011 5.577526
P 0.540092 4.115037 4.121337
P 7.523047 -0.815068 2.131659
P 5.742537 0.173301 -0.991255
P 4.954686 5.956228 9.276373
P 8.553617 4.584903 1.500743
O 3.195902 2.801940 8.934531
O 1.585510 0.975869 5.728271
O 5.822509 4.388286 4.650816
O 2.957632 8.187547 7.003500
O 9.111713 5.153660 2.556846
O 4.932907 1.710950 -0.763802
O 10.503945 5.275911 4.395553
O 5.804516 -0.204509 -2.304010
O 10.210328 1.236711 -0.290886
O 7.510221 -1.158224 3.414997
O 4.911127 6.278062 6.214218
O 3.295750 1.267059 2.132100
O 0.225209 5.388743 10.793890
O 7.739591 -2.058018 1.281618
O 0.486895 4.892818 8.576004
O 6.898104 0.774993 5.482107
O 10.198657 5.828494 6.630132
O 0.498565 0.301035 1.654986
O 2.057012 3.231998 4.100264
O 7.501310 3.327592 -0.649408
O 2.162198 1.381346 -0.324268
O 5.786096 -0.148533 2.070900
O 4.892707 6.334038 10.589128
O 3.799119 5.354536 2.803011
O 2.039982 7.766777 11.052701
O 0.976410 5.659858 3.873418
O 7.401473 4.862470 6.153018
O 8.640211 2.897531 4.184854
O 3.061716 3.662581 0.058470
O 2.161181 5.846216 6.648973
O 8.657241 -1.637248 -2.767583
O 10.472014 0.740786 -2.508772
O 1.890616 3.119476 6.836311
O 9.720812 0.469670 4.411699
O 9.055146 0.665088 6.620758
O 8.761539 -1.473287 5.511513
O 3.744370 0.896117 6.871010
O 5.781913 2.333663 1.470324
O 3.187002 7.287753 4.870121
O 8.536042 0.283313 1.636145
O 4.884288 -0.762560 -0.133817
O 0.193277 0.853617 3.889565
O 8.806606 3.010052 1.448806
O 7.384956 0.282699 -0.805225
O 1.642077 5.464441 1.664360
O 5.812935 6.892089 8.418935
O 0.974603 1.102780 7.937443
O 3.312267 5.846829 9.090343
O 4.915310 3.795866 6.814794
O 1.935684 7.602816 2.773604
O 4.874714 1.741242 3.634301
O 6.952853 5.233412 1.414108
O 9.722620 5.026749 0.347675
O 5.764306 4.418582 9.048925
O 7.635507 2.466948 8.226647
O 8.535025 4.748183 8.609385
