48

Rb 1.863051 5.928444 1.089418
Rb 2.898326 1.346759 6.409854
Rb 2.898326 3.234926 14.796194
Rb 1.863051 7.816611 9.475757
V 1.931391 5.204886 5.286812
V 1.931391 8.540169 13.673151
V 2.829986 0.623201 2.212460
V 2.829986 3.958484 10.598799
P 0.373335 2.011644 9.971326
P 0.675139 8.169117 4.175119
P 4.086237 3.587432 3.324153
P 4.388042 6.593329 14.300624
P 4.086237 0.994253 11.710492
P 0.373335 2.570041 1.584987
P 0.675139 5.575938 12.561458
P 4.388042 7.151726 5.914285
O 4.274321 5.127574 10.929235
O 4.015493 3.078911 9.184541
O 2.902654 4.590802 3.575606
O 3.738824 2.133507 3.595601
O 2.624857 0.362228 14.654223
O 1.599999 2.510818 10.610510
O 4.553662 3.787212 1.716543
O 4.064730 5.987282 15.666226
O 2.136520 8.801142 1.231388
O 0.745884 6.084459 6.701071
O 0.696647 1.405597 8.605724
O 0.745884 7.660596 15.087410
O 2.136520 4.943913 9.617727
O 2.624857 4.219457 6.267884
O 4.274321 8.617480 2.542896
O 4.553662 0.794473 10.102882
O 1.599999 2.070867 2.224171
O 2.902654 9.154252 11.961945
O 1.022553 7.029862 12.290010
O 4.064730 7.757773 7.279887
O 3.161378 6.652552 5.275101
O 1.022553 6.715192 3.903671
O 0.487056 0.545889 13.342715
O 3.161378 7.092503 13.661440
O 0.207715 8.368897 5.782729
O 1.858722 0.009118 3.923666
O 0.696647 3.176088 0.219385
O 4.015493 1.502774 0.798202
O 0.207715 5.376158 14.169068
O 0.487056 4.035795 4.956376
O 3.738824 2.448178 11.981941
O 1.858722 4.572567 12.310005
