32

Rb 2.870721 5.644110 4.088338
Rb 1.005269 1.633834 4.432441
Rb 6.746710 2.376441 0.172052
Rb 4.881258 6.386717 8.348727
V 1.063820 6.302525 7.435810
V 4.939809 1.718026 5.345357
V 6.688160 5.728302 3.175421
V 2.812170 2.292249 1.084968
P 6.780036 4.578716 5.561163
P 0.971943 7.452111 1.300773
P 2.904046 3.441835 7.220005
P 4.847933 0.568441 2.959616
O 5.965303 1.449081 3.625617
O 1.786676 2.561195 7.886006
O 1.402488 7.377696 6.247077
O 3.739113 0.664944 4.061386
O 4.363411 1.151077 1.607053
O 7.264558 5.161353 6.913725
O 3.388568 2.859198 5.867442
O 5.330904 7.153682 2.699101
O 7.615102 7.355607 0.199003
O 0.136877 4.675219 4.459392
O 6.349491 4.653131 1.986688
O 2.089313 6.571470 0.634772
O 4.012866 3.345332 8.321775
O 1.454915 0.866869 1.561288
O 2.421075 4.877145 6.959490
O 0.487421 6.869474 2.653336
O 2.473501 3.367420 2.273701
O 5.278478 0.642855 6.534091
O 5.662666 5.459357 4.895162
O 6.297064 3.143406 5.821677
