64

Cu 2.301167 2.158680 1.871774
Cu 7.088325 7.376738 14.864728
Cu 2.548064 6.902137 8.420747
Cu 6.841428 2.633282 8.315755
P 8.631047 2.355419 12.915233
P 0.758446 7.180000 3.821269
P 8.879681 5.596023 12.875865
P 0.509812 3.939396 3.860637
P 0.847477 8.535822 6.374230
P 8.542016 0.999597 10.362272
P 2.273534 0.805044 6.478433
P 7.115958 8.730375 10.258069
P 6.903615 5.588293 10.602236
P 2.485878 3.947125 6.134266
P 5.585358 8.557060 7.767521
P 3.804134 0.978358 8.968981
P 3.800228 5.238077 10.576454
P 5.589264 4.297342 6.160048
P 5.575227 2.261012 3.915125
P 3.814265 7.274407 12.821377
O 6.935605 2.305501 12.585072
O 2.453888 7.229918 4.151430
O 2.902668 3.802564 10.377723
O 6.486825 5.732855 6.358779
O 4.171827 7.633285 7.581206
O 5.217666 1.902134 9.155296
O 8.079151 5.142613 11.523110
O 1.310341 4.392806 5.213392
O 5.432854 0.788369 4.472122
O 3.956638 8.747050 12.264380
O 1.930104 0.376172 2.642172
O 7.459388 9.159247 14.094330
O 3.902649 6.171448 9.600184
O 5.486844 3.363971 7.136318
O 9.227524 4.010901 13.149638
O 0.161969 5.524518 3.586864
O 3.263684 6.129239 11.708239
O 6.125808 3.406179 5.028263
O 1.566027 3.457717 3.084983
O 7.823466 6.077702 13.651519
O 2.999502 9.149264 9.625153
O 6.389991 0.386155 7.111349
O 2.845655 1.378547 7.812250
O 6.543838 8.156871 8.924252
O 1.158419 7.390985 7.138937
O 8.231073 2.144434 9.597565
O 0.894772 6.411371 9.288321
O 8.494721 3.124048 7.448181
O 2.896950 0.914089 9.958744
O 6.492543 8.621330 6.777759
O 9.113432 1.822306 11.686911
O 0.276060 7.713113 5.049591
O 4.332640 2.556577 3.158146
O 5.056852 6.978842 13.578357
O 7.045434 5.056009 9.375213
O 2.344059 4.479410 7.361289
O 2.344791 2.229920 5.825459
O 7.044701 7.305499 10.911043
O 5.441812 5.065203 11.098206
O 3.947681 4.470216 5.638296
O 8.769129 9.223274 10.288970
O 0.620364 0.312144 6.447532
O 9.095958 1.591297 4.523120
O 0.293534 7.944122 12.213382
