52

Li 0.000000 0.000000 0.000000
Li 0.000000 0.000000 0.000000
W 0.000000 0.000000 0.000000
W 0.000000 0.000000 0.000000
W 0.000000 0.000000 0.000000
W 0.000000 0.000000 0.000000
W 0.000000 0.000000 0.000000
W 0.000000 0.000000 0.000000
W 0.000000 0.000000 0.000000
W 0.000000 0.000000 0.000000
W 0.000000 0.000000 0.000000
W 0.000000 0.000000 0.000000
W 0.000000 0.000000 0.000000
W 0.000000 0.000000 0.000000
C 0.000000 0.000000 0.000000
C 0.000000 0.000000 0.000000
Cl 0.000000 0.000000 0.000000
Cl 0.000000 0.000000 0.000000
Cl 0.000000 0.000000 0.000000
Cl 0.000000 0.000000 0.000000
Cl 0.000000 0.000000 0.000000
Cl 0.000000 0.000000 0.000000
Cl 0.000000 0.000000 0.000000
Cl 0.000000 0.000000 0.000000
Cl 0.000000 0.000000 0.000000
Cl 0.000000 0.000000 0.000000
Cl 0.000000 0.000000 0.000000
Cl 0.000000 0.000000 0.000000
Cl 0.000000 0.000000 0.000000
Cl 0.000000 0.000000 0.000000
Cl 0.000000 0.000000 0.000000
Cl 0.000000 0.000000 0.000000
Cl 0.000000 0.000000 0.000000
Cl 0.000000 0.000000 0.000000
Cl 0.000000 0.000000 0.000000
Cl 0.000000 0.000000 0.000000
Cl 0.000000 0.000000 0.000000
Cl 0.000000 0.000000 0.000000
Cl 0.000000 0.000000 0.000000
Cl 0.000000 0.000000 0.000000
Cl 0.000000 0.000000 0.000000
Cl 0.000000 0.000000 0.000000
Cl 0.000000 0.000000 0.000000
Cl 0.000000 0.000000 0.000000
Cl 0.000000 0.000000 0.000000
Cl 0.000000 0.000000 0.000000
Cl 0.000000 0.000000 0.000000
Cl 0.000000 0.000000 0.000000
Cl 0.000000 0.000000 0.000000
Cl 0.000000 0.000000 0.000000
Cl 0.000000 0.000000 0.000000
Cl 0.000000 0.000000 0.000000
