72

Li 6.249267 7.931039 3.681381
Li 0.207595 7.845884 9.149683
Li 3.283973 2.819996 7.278879
Li 1.671546 7.652322 0.913206
Li 1.646603 4.992006 7.917456
Li 3.228431 5.258409 5.468302
Li 0.207595 2.585779 7.255223
Li 4.810259 0.264709 2.449154
Li 4.785316 8.124601 6.381508
Li 3.172889 7.696823 3.657725
Li 3.228431 -0.001695 5.468302
Li 4.785316 2.864497 10.023397
Li 1.671546 2.392217 4.555095
Li 3.283973 8.080100 9.126027
Li 1.646603 10.252110 8.487450
Li 3.172889 2.436719 1.810577
Li 3.228431 -0.001695 0.000000
Li 4.810259 5.524813 3.019148
Li 6.249267 2.670935 1.786921
Li 3.228431 5.258409 0.000000
V 0.000000 5.260105 5.468302
V 0.000000 0.000000 0.000000
V 0.000000 0.000000 5.468302
V 0.000000 5.260105 0.000000
P 1.627749 5.010763 2.791207
P 4.786246 7.827521 0.867327
P 4.786246 2.567416 4.600975
P 1.627749 10.270867 2.677095
P 1.670616 2.689298 10.069276
P 1.670616 7.949403 6.335629
P 4.829113 0.245952 8.259509
P 4.829113 5.506056 8.145397
O 0.387315 8.580195 5.666801
O 0.377701 5.617488 3.536854
O 6.079161 10.159435 9.005156
O 2.926728 8.459268 5.611976
O 3.530134 2.057551 5.324628
O 4.920213 10.242585 6.779830
O 2.926728 3.199163 10.792930
O 1.571161 3.461713 2.791896
O 3.576178 4.922822 7.484246
O 0.387315 3.320090 10.738104
O 2.880684 0.333893 2.015944
O 3.576178 10.182926 8.920660
O 4.924293 4.105745 4.852221
O 4.773416 2.275203 3.092708
O 1.532568 6.411073 6.084383
O 1.536649 0.274234 4.156773
O 2.880684 5.593997 3.452358
O 1.683446 8.241616 7.843896
O 4.885701 7.055106 8.144708
O 6.069547 1.936624 5.269803
O 1.571161 8.721817 2.676406
O 1.683446 2.981511 8.561009
O 6.069547 7.196729 0.198499
O 3.530134 7.317656 0.143674
O 4.924293 9.365850 0.616081
O 0.377701 0.357384 1.931448
O 6.079161 4.899331 7.399750
O 1.532568 1.150969 10.320523
O 4.773416 7.535308 2.375594
O 1.536649 5.534338 1.311528
O 4.885701 1.795002 8.260198
O 4.920213 4.982481 9.625075
F 4.997566 1.393892 0.337558
F 1.377074 0.627849 6.816304
F 5.079788 4.628865 1.348002
F 1.459296 3.862823 5.805860
F 1.459296 9.122927 10.599046
F 5.079788 9.888970 4.120300
F 1.377074 5.887953 9.588602
F 4.997566 6.653996 5.130744
