32

Cu -0.022677 4.311294 0.041421
Cu 1.437098 2.851518 6.284365
Cu 1.437098 5.771069 6.284365
Cu 2.896873 4.311294 0.041421
Cu 2.851518 1.437098 12.610152
Cu 4.311294 -0.022677 6.367208
Cu 4.311294 2.896873 6.367208
Cu 5.771069 1.437098 12.610152
Cu 5.733584 4.311294 4.413273
Cu 1.437098 2.859388 1.912513
Cu 1.437098 0.014808 1.912513
Cu 2.889004 4.311294 4.413273
Cu 2.859388 1.437098 8.238299
Cu 4.311294 5.733584 10.739060
Cu 4.311294 2.889004 10.739060
Cu 0.014808 1.437098 8.238299
O 0.206626 1.437098 1.775370
O 0.205551 4.311294 1.864766
O 1.437098 0.206626 8.101156
O 1.437098 2.667570 8.101156
O 1.437098 3.079747 4.461021
O 1.437098 5.542841 4.461021
O 2.668645 4.311294 1.864766
O 2.667570 1.437098 1.775370
O 3.080822 4.311294 10.876203
O 3.079747 1.437098 10.786807
O 4.311294 5.541766 4.550417
O 4.311294 3.080822 4.550417
O 4.311294 0.205551 8.190552
O 4.311294 2.668645 8.190552
O 5.542841 1.437098 10.786807
O 5.541766 4.311294 10.876203
