72

Li 3.215659 2.521969 3.653378
Li 3.144565 2.750741 9.123931
Li 1.590056 7.671286 4.561446
Li 3.144565 8.023451 7.287729
Li 4.770168 5.547007 2.480721
Li 0.035547 2.750741 9.123931
Li 1.590056 2.398577 0.909107
Li 1.590056 4.998413 8.460386
Li 0.035547 8.023451 7.287729
Li 4.770168 2.874133 6.379661
Li 6.324677 2.521969 3.653378
Li 6.324677 7.794678 1.817176
Li 4.770168 8.146843 10.031999
Li 3.215659 7.794678 1.817176
Li 1.590056 10.271122 7.951274
Li 4.770168 0.274297 2.989832
Ni 0.000000 5.272710 5.470553
Ni 3.180112 5.272710 5.470553
Ni 0.000000 0.000000 0.000000
Ni 3.180112 0.000000 0.000000
Ni 0.000000 5.272710 0.000000
Ni 3.180112 5.272710 0.000000
Ni 0.000000 0.000000 5.470553
Ni 3.180112 0.000000 5.470553
P 1.590056 10.305848 2.802378
P 4.770168 0.239571 8.138728
P 4.770168 2.567103 0.857794
P 4.770168 7.839813 4.612759
P 1.590056 7.978316 10.083313
P 4.770168 5.512280 8.272932
P 1.590056 2.705607 6.328347
P 1.590056 5.033139 2.668175
O 4.770168 1.789832 8.136846
O 4.770168 4.105870 0.598457
O 1.590056 6.439550 10.342650
O 6.043440 7.275053 5.312257
O 4.770168 9.378579 4.872097
O 3.496896 7.275053 5.312257
O 6.023202 10.185283 7.441484
O 0.337022 5.632846 1.970931
O 2.863328 8.543076 10.782810
O 3.517134 10.185283 7.441484
O 1.590056 5.563837 4.140979
O 1.590056 2.987296 7.841885
O 1.590056 8.755587 2.804260
O 6.023202 4.912573 8.970175
O 1.590056 1.166840 6.069010
O 1.590056 8.260005 8.569775
O 3.517134 4.912573 8.970175
O 4.770168 7.062541 8.274813
O 3.496896 2.002343 0.158296
O 6.043440 2.002343 0.158296
O 4.770168 10.254292 9.611532
O 2.843090 5.632846 1.970931
O 0.316784 3.270367 5.628849
O 0.316784 8.543076 10.782810
O 4.770168 4.981582 6.800127
O 4.770168 2.285414 2.371332
O 2.863328 3.270367 5.628849
O 1.590056 0.291127 1.329574
O 2.843090 0.360137 3.499622
O 0.337022 0.360137 3.499622
O 4.770168 7.558123 3.099222
O 1.590056 3.482878 2.666293
F 4.770168 4.748275 4.199558
F 4.770168 1.353146 5.168229
F 1.590056 5.797144 6.741549
F 1.590056 0.524434 9.670111
F 4.770168 6.625856 0.302325
F 4.770168 10.020985 1.270996
F 1.590056 9.192273 5.772878
F 1.590056 3.919564 10.638782
