40

O 0.886594 0.101729 10.368349
O 1.389014 2.876990 10.334739
O 0.782529 3.513741 7.396108
O 0.829766 5.024476 4.772744
O 0.764837 1.470251 2.948238
O 0.578107 1.495918 0.542297
O 1.837785 2.055957 4.952514
O 3.707692 0.872521 9.854490
O 3.101207 0.235771 6.915859
O 3.603627 2.742948 6.882249
O 2.652437 4.697176 -0.138356
O 3.912114 4.137137 4.271860
O 5.319987 2.899182 9.586902
O 3.725384 4.111470 1.865919
O 5.255059 1.170969 7.762395
O 3.660455 2.383257 0.041413
O 5.068328 1.145301 5.356454
O 6.328006 0.585262 9.766671
O 5.376815 2.539490 2.746065
O 5.879235 5.046667 2.712455
O 5.272750 4.409917 -0.226175
O 7.142658 3.226482 4.675801
O 8.402336 3.786521 9.086018
O 8.215605 3.812188 6.680077
O 8.150677 0.257963 4.855570
O 8.197914 1.768698 2.232206
O 7.591429 2.405448 -0.706425
O 8.093848 5.180709 -0.740034
P 0.286081 3.965611 10.589853
P 0.639533 1.240126 4.515124
P 4.204140 1.324392 6.660745
P 5.129754 1.401093 9.329282
P 3.850688 3.881346 0.299033
P 4.776302 3.958047 2.967569
P 8.340909 4.042312 5.113190
P 8.694362 1.316827 -0.961538
Sb 2.164924 1.262291 11.416523
Sb 2.325297 3.903511 5.834075
Sb 6.655146 1.378928 3.794240
Sb 6.815518 4.020147 -1.788209
