40

Mn 1.792469 2.175018 7.333656
Mn 4.484202 7.757128 2.083537
Mn 2.359834 2.395758 4.034711
Mn 3.899936 7.561025 5.392193
P 5.620677 2.476347 3.290665
P 4.386496 -0.191296 -0.214281
P 5.779729 7.708986 7.314086
P 1.890884 10.130320 9.628602
P 2.575565 4.649541 6.387286
P 3.688032 5.295848 3.048316
P 0.494100 2.231109 2.099115
P 0.641434 7.471063 6.138613
O 0.373039 2.938513 4.749022
O 2.453205 4.503258 3.479559
O 1.849010 1.845425 2.534699
O 0.006123 7.736495 5.052251
O 2.762176 8.535025 9.675364
O 3.770952 9.636059 4.888970
O 5.816779 0.151977 0.057101
O 6.262888 2.185825 4.371424
O 1.930982 8.193305 6.100873
O 0.296267 6.953714 9.627720
O 5.027152 4.290119 3.386885
O 3.522638 1.404460 -0.273528
O 4.329541 1.759613 3.323081
O 0.803309 1.724152 0.795230
O 3.554381 6.904814 3.649988
O 1.229764 5.657841 6.062895
O 4.669075 9.697903 2.666619
O 4.057081 5.740871 1.752185
O 1.617382 0.229641 6.751390
O 3.806954 5.452722 5.954866
O 4.418239 8.112189 6.889815
O 5.971515 2.983601 -0.235962
O 5.490940 8.186764 8.622293
O 2.490882 0.317983 4.529908
O 2.214740 4.188744 7.678175
O 0.458305 9.788112 9.361746
O 5.884881 7.028759 4.675219
O 2.709662 3.047681 5.774338
