24

As 1.537129 1.012950 2.161868
As 1.537129 6.156814 0.375840
As 4.611387 4.130914 4.699576
As 4.611387 9.274778 2.913548
Mn 1.537129 2.887138 4.769257
Mn 1.537129 8.031002 2.843867
Mn 4.611387 2.256726 2.231549
Mn 4.611387 7.400590 0.306159
O 0.236453 1.820125 1.348091
O 0.236453 6.963989 1.189617
O 1.537129 4.484019 0.746254
O 1.537129 1.198551 3.866975
O 1.537129 6.342415 3.746149
O 1.537129 9.627883 1.791454
O 2.837805 1.820125 1.348091
O 2.837805 6.963989 1.189617
O 3.310712 8.467603 3.727324
O 3.310712 3.323739 3.885799
O 4.611387 5.803709 4.329162
O 4.611387 0.659845 3.283962
O 4.611387 3.945313 1.329267
O 4.611387 9.089177 1.208441
O 5.912063 3.323739 3.885799
O 5.912063 8.467603 3.727324
