56

Li 6.255999 -1.810258 2.061435
Li 6.121434 5.020057 0.518506
Li 3.469817 0.139453 0.962935
Li 3.335252 6.969768 -0.579994
Cu 0.981732 2.217172 0.309420
Cu 8.609519 2.942339 1.172021
Cu 2.475895 5.864409 2.141804
Cu 7.115356 -0.704899 -0.660363
P 4.067688 4.318085 -1.400951
P 0.127094 3.452364 3.737843
P 7.795539 5.110841 -5.317297
P 9.464157 1.707146 -2.256402
P 6.552829 2.517000 -0.786137
P 1.795712 0.048670 6.798739
P 3.038422 2.642511 2.267578
P 9.143445 -1.643909 3.477936
P 4.918528 -0.584598 5.428472
P 4.672723 5.744108 -3.947031
P 5.523563 0.841425 2.882392
P 0.447806 6.803419 -1.996495
O 4.850603 -0.310190 2.495401
O 2.029480 7.432156 -1.872656
O 9.059809 0.298584 -1.662953
O 4.155007 1.809909 3.083899
O 4.197803 7.114498 1.035283
O 9.211255 -1.168418 -3.698541
O 7.561771 -2.272645 3.354097
O 3.792726 3.988602 1.744753
O 8.068841 2.553660 -1.849544
O 1.002593 1.185734 6.003672
O 9.444025 1.883771 -3.651000
O 6.081736 -0.817994 -2.022534
O 2.513387 1.803222 1.463518
O 2.535754 3.608504 -0.674227
O 8.588658 3.973776 -4.522231
O 0.531442 4.860926 3.144394
O 7.545658 4.796853 1.818211
O 3.500950 0.222998 5.885902
O 3.509515 5.977504 3.503975
O 0.892044 7.642334 2.775057
O 1.483517 6.017712 0.678497
O 5.798525 1.170908 -0.263312
O 0.379996 6.327928 5.179982
O 4.740648 5.469700 -1.013960
O 5.833648 0.422728 4.244721
O 2.045593 0.362657 -0.336769
O 5.393448 -1.954988 0.446159
O 6.090301 4.936512 -4.404460
O 1.522410 2.605850 3.330985
O 0.147226 3.275739 5.132441
O 5.436244 3.349601 -1.602457
O 8.699207 -2.482824 -1.293616
O 8.107734 -0.858202 0.802944
O 7.055497 1.551006 2.155668
O 7.077864 3.356288 0.017923
O 3.757603 4.736782 -2.763279
