12

Li 2.364982 2.764884 -1.154315
Li 0.000000 2.764884 1.512159
F 1.027287 0.820507 1.572411
F 0.856734 3.726123 3.017427
F 3.702677 4.709261 1.451907
F 3.392268 4.709261 -1.214567
F 1.337695 0.820507 4.238885
F 3.873225 1.803644 0.006891
F 1.508248 3.726123 0.350953
F 3.221720 1.803644 2.673365
Mn 0.000000 0.000000 0.000000
Mn 2.364982 0.000000 2.666474
