92

Ni 7.180529 8.984257 5.096138
Ni 4.182972 5.233723 13.555749
Ni 1.279861 8.319055 3.991870
Ni 8.312745 3.683186 5.724439
Ni 8.241391 10.311604 13.960844
Ni 0.420191 0.525741 4.421349
Ni 2.329134 1.433829 9.529370
Ni 0.000000 4.136701 10.402576
Ni 7.882281 8.381920 1.324850
Ni 7.381720 2.518291 14.390324
Ni 0.348837 7.154159 12.657754
Ni 1.481052 1.853089 13.286055
Ni 4.478609 5.603623 4.826444
Ni 4.330791 1.281972 -1.211480
Ni 6.332456 9.403519 8.852821
Ni 0.779300 2.455434 17.057346
P 4.805896 7.855791 3.384024
P 6.735020 6.584170 6.526757
P 8.507466 5.107956 0.398848
P 2.711136 8.928726 9.479761
P 3.855694 2.981557 14.998167
P 1.926561 4.253184 11.855439
P 0.951388 6.663147 9.309507
P 7.710193 4.174199 9.072686
P 6.200999 3.092226 4.384072
P 1.315608 6.312531 5.125019
P 1.980644 7.950948 18.171058
P 6.680937 2.886397 0.211135
P 0.154116 5.729389 17.983345
P 7.345974 4.524814 13.257174
P 2.460582 7.745120 13.998121
P 5.950446 1.908620 8.902432
O 1.872625 3.323024 10.420626
O 5.762974 8.190618 2.050130
O 6.141061 9.879017 7.061423
O 6.228058 5.327882 13.022377
O 1.424882 8.332356 17.025830
O 3.394543 2.344219 13.662141
O 0.837748 1.968513 1.369540
O 8.439403 8.364018 3.152753
O 6.461644 9.820177 13.336438
O 1.402232 3.657492 13.093099
O 2.448179 7.366564 9.310200
O 4.397260 1.721754 8.955228
O 3.647773 7.028729 14.239833
O 4.005462 4.434271 15.105486
O 1.801254 1.333399 7.652689
O 6.197032 3.148907 5.943942
O 3.401022 4.832700 11.910244
O 0.383128 2.214756 3.970890
O 5.267038 8.493126 4.720053
O 7.725723 3.683575 3.934111
O 1.462188 7.812313 5.741803
O 2.898607 2.646728 16.332064
O 5.267012 2.295679 14.980375
O 7.823833 8.868833 17.012653
O 8.278453 8.622590 14.411303
O 6.213403 3.470782 9.071993
O 0.039246 0.955521 10.022928
O 5.140761 2.582641 0.275622
O 8.622336 9.881824 8.359265
O 0.379854 7.024819 8.162704
O 2.199938 1.017168 5.045756
O 0.771132 5.259230 11.898773
O 0.222178 2.473328 15.229440
O 7.673390 10.507341 2.026121
O 0.439818 4.330383 17.804034
O 7.890449 5.578116 6.483420
O 1.110683 5.239149 9.107186
O 2.520520 0.958329 11.320770
O 7.550898 5.598197 9.275007
O 6.860327 9.503947 10.729504
O 7.259349 7.179854 5.289094
O 1.376178 6.326672 3.570799
O 0.988191 0.330005 16.356072
O 2.433523 5.509464 5.359816
O 8.221763 6.506963 0.578159
O 5.260559 6.004646 6.471949
O 6.953500 4.396789 0.387051
O 6.788956 7.514321 7.961567
O 0.935858 7.153770 14.448082
O 7.236699 2.504990 1.356363
O 7.285403 4.510674 14.811394
O 3.520820 8.254705 18.106571
O 4.264322 9.115591 9.426965
O 1.708081 6.440556 17.995142
O 7.199394 3.025033 12.640390
O 5.013808 3.808616 4.142360
O 4.656120 6.403075 3.276708
O 2.464549 7.688438 12.438251
O 3.394569 8.541667 3.401818
O 8.281728 3.812526 10.219489
