24

O 3.173953 1.518042 -0.271174
O 8.074401 4.584449 0.736559
O 7.396378 1.523940 2.702775
O 5.681713 1.197854 0.286290
O 0.155456 1.126818 7.133008
O 0.034207 2.214789 2.546455
O 1.980707 3.361911 6.093416
O 2.493369 0.434414 5.341374
O 1.368054 4.073064 1.486623
O 6.807036 4.836515 4.141048
O 4.469124 4.144105 5.932664
O 3.760733 0.686469 1.936902
O 7.487621 3.752887 -1.471509
O 4.347875 3.056139 1.346112
O 6.294374 1.909018 4.893089
O 3.082702 3.746983 3.903112
P 3.011156 4.238776 5.308606
P 4.233865 1.612929 0.815476
P 7.324823 1.032152 4.108279
P 8.547532 3.657989 -0.384859
Co 7.456209 1.038920 0.991600
Co 6.265240 3.675578 5.467590
Co 3.142533 4.232008 2.191937
Co 1.951572 1.595340 6.667925
