52

Li 1.139023 9.797882 1.352174
Li 3.805960 2.028466 3.113768
Li 3.557744 10.829744 6.132828
Li 1.040806 15.561558 3.344264
Li 3.988967 5.330283 0.955585
Li 1.315545 0.996604 1.730024
Li 1.413762 6.760280 6.313833
Li 3.374736 14.131562 1.715112
Ni 1.481140 6.553309 3.101258
Ni 3.455757 11.085668 3.105614
Ni 0.973428 15.354587 -0.019059
Ni 3.907947 2.284389 6.140982
P 0.880282 12.591426 1.778701
P 3.823500 8.185471 1.502425
P 4.038324 5.008614 4.369146
P 3.540204 16.986749 1.168272
P 1.574286 3.790147 1.303497
P 1.386689 0.605616 4.998740
P 1.067879 9.406894 4.659357
P 3.325380 13.809892 4.877450
O 1.776405 9.787004 5.967253
O 2.412403 12.353404 1.850339
O 3.151076 12.274791 4.757241
O 3.147625 7.621203 2.782157
O 0.316934 11.673470 0.703062
O 2.041719 16.544573 1.279019
O 0.709655 1.197537 6.268810
O 1.900057 5.305358 1.509990
O 3.093718 7.623738 0.291379
O 4.649452 5.681454 5.602468
O 2.291845 3.452830 -0.041588
O 0.042165 3.552126 1.231860
O 0.554511 14.106636 1.572209
O 4.216079 16.422482 -0.111459
O 4.269986 16.425016 2.379319
O 1.393453 16.656103 5.040956
O 2.714251 14.482733 3.644128
O 2.649858 14.244359 6.220820
O 2.528500 5.378849 4.361307
O 4.212628 3.473513 4.489355
O 2.851948 1.114964 4.868545
O 1.061115 7.854824 4.617141
O 0.678163 0.985726 3.690844
O 4.713846 5.443080 3.025776
O 4.511756 9.916242 4.378051
O 3.806161 9.740973 1.504162
O 0.412849 7.743294 1.803180
O 4.835204 14.180127 4.885289
O 3.557543 0.939695 1.166536
O 1.744913 9.998816 3.389287
O 2.137634 2.872192 2.379136
O 0.162723 12.254108 3.123787
