34

Bi 1.484238 2.795302 0.551422
Bi 5.701684 9.009975 1.030004
O 1.432966 1.348843 5.034514
O 2.269070 3.927154 4.596240
O 0.962382 5.230123 3.585047
O -0.024303 7.557735 3.707483
O 1.741300 3.003126 2.559428
O 4.177478 2.471735 4.118045
O 1.300968 5.139818 0.319252
O 3.703466 5.325504 2.809105
O 0.175459 6.327009 -1.895026
O 1.377908 7.587843 -0.195353
O 4.152313 8.654483 3.101483
O 3.203441 7.342160 0.982166
O 3.982481 4.463117 0.599260
O 3.033609 3.150794 -1.520057
O 5.808014 4.217434 1.776779
O 7.010463 5.478268 3.476452
O 3.482456 6.479773 -1.227679
O 5.884954 6.665459 1.262173
O 3.008444 9.333542 -2.536619
O 5.444622 8.802151 -0.978002
O 7.210225 4.247542 -2.126057
O 6.223540 6.575153 -2.003621
O 4.916852 7.878123 -3.014815
O 5.752956 10.456434 -3.453088
P -0.061835 0.775422 6.073391
P 2.832310 2.714426 5.055949
P 2.041427 4.320835 3.348230
P 2.359965 6.584766 0.054936
P 4.825957 5.220511 1.526490
P 5.144495 7.484442 -1.766804
P 4.353612 9.090851 -3.474524
P 7.247757 11.029855 -4.491965
