20

Mo 2.224517 6.224183 2.220174
Mo 4.234122 1.212709 0.722363
P 3.929416 4.775586 0.041459
P 0.815435 1.664933 0.785870
P 5.643203 5.771958 2.156666
P 2.529222 2.661306 2.901077
O 2.615548 5.323114 0.588027
O 2.124640 0.760263 0.411536
O 4.333998 6.676629 2.531001
O 2.174159 1.789814 4.103830
O 0.313961 2.642547 -0.210869
O 2.613307 4.278749 3.126591
O 6.144678 4.794344 3.153405
O 1.354648 2.513511 1.928199
O 3.843090 2.113778 2.354510
O 4.284480 5.647077 -1.161294
O 6.234291 1.595593 0.721905
O 5.103991 4.923380 1.014337
O 3.845331 3.158143 -0.184055
O 0.224347 5.841298 2.220631
