20

Cr 2.261930 6.015423 2.347462
Cr 4.111200 1.143874 0.805284
P 3.889288 4.651774 0.170535
P 2.483836 2.507522 2.982211
P 0.814817 1.532027 0.842605
P 5.558307 5.627270 2.310141
O 2.102219 0.695688 0.435839
O 2.601433 5.170172 0.785913
O 5.098321 4.826640 1.136124
O 0.315087 5.788826 2.318433
O 1.274803 2.332656 2.016623
O 4.270904 6.463609 2.716908
O 2.172177 1.645748 4.183267
O 2.527696 4.120311 3.210032
O 3.845428 3.038985 -0.057285
O 6.058036 1.370471 0.834313
O 0.323927 2.601958 -0.155385
O 3.771691 1.989125 2.366834
O 4.200946 5.513549 -1.030521
O 6.049197 4.557338 3.308131
