36

Li 0.000000 3.559425 1.450138
Li 0.000000 0.000000 4.532268
O 0.180201 4.494427 3.411453
O 0.965657 5.414889 7.957096
O 1.447369 4.481891 5.747579
O 3.671416 4.655497 7.789380
O 2.339308 4.355642 10.654062
O 1.510378 3.042359 7.175866
O 0.930103 1.834297 1.945262
O 5.541848 4.551484 5.952303
O 4.175943 4.003915 12.660767
O 5.262896 4.050949 10.774778
O 4.032798 2.438913 4.851701
O 0.357656 0.856504 6.663487
O 7.184654 3.768030 8.754209
O 3.509512 2.185621 10.565995
O 2.279414 0.573584 4.642918
O 3.366367 0.620619 2.756929
O 2.000462 0.073050 9.465393
O 6.612208 2.790237 13.472434
O 6.031932 1.582175 8.241830
O 5.203002 0.268892 4.763634
O 3.870895 -0.030963 7.628316
O 6.094941 0.142643 9.670117
O 6.576653 -0.790355 7.460600
O 7.362109 0.130107 12.006243
P 1.914781 4.488327 7.250120
P 0.056658 2.242779 7.257266
P 3.875593 3.727055 11.101151
P 5.221828 3.446665 4.743360
P 2.320482 1.177869 10.674336
P 3.666717 0.897479 4.316545
P 7.485652 2.381755 8.160430
P 5.627529 0.136207 8.167576
Sb 1.559063 6.294957 10.287216
Sb 5.983247 -1.670423 5.130480
