40

Na 1.217582 6.311001 11.652454
Na 4.326001 2.586649 10.792827
Na 5.099029 4.843440 4.504320
Na 1.184324 0.109952 8.072696
Na 1.924095 3.419704 5.363946
Na 1.957352 2.366744 1.784188
Na 5.065771 -1.357608 0.924562
Na 4.359259 1.533688 7.213069
V 1.789141 5.708096 2.738897
V 1.352536 4.022609 9.027404
V 4.494212 -0.754703 9.838119
V 4.930817 0.930783 3.549611
P 5.700038 2.963318 1.425290
P 0.583315 1.990074 11.151725
P 2.558362 0.486622 4.863217
P 3.724992 4.466770 7.713798
O 1.494351 -0.435306 4.328745
O 0.953939 4.572261 1.368958
O 3.442165 3.419310 8.781486
O 5.982864 4.010778 2.492978
O 3.513456 0.435023 9.091094
O 5.329415 0.381132 11.208057
O 1.059084 1.387067 12.469394
O 2.769897 4.518370 3.485921
O 0.322104 3.222629 8.056698
O 2.841188 1.534082 3.795529
O 3.463780 5.699325 10.808825
O 5.961250 1.730764 4.520318
O 2.819573 -0.745933 1.768190
O 4.789002 5.388699 8.248271
O 0.371780 5.212335 9.774429
O 2.082592 1.089629 6.180886
O 1.647326 2.912003 10.617252
O 5.911573 -0.258943 2.802587
O 4.200761 3.863764 6.396129
O 0.300489 0.942614 10.084037
O 4.095615 -0.205052 4.919550
O 5.224269 3.566325 0.107622
O 2.187738 5.158444 7.657465
O 4.636028 2.041390 1.959763
