24

Li 6.681463 -1.676511 -2.733175
Li 4.576278 0.310343 -4.021214
Li 2.600861 4.697847 -1.481192
Li 4.706045 2.710993 -0.193153
Ni 0.000000 3.528529 -0.503069
Ni 4.641162 -2.017861 -3.964453
P 8.576347 2.536941 -4.722084
P 1.365198 2.143985 0.633624
P 7.917126 0.877351 -4.847990
P 0.705976 0.484395 0.507717
O 7.504350 -1.465941 -5.472196
O 5.974048 1.179747 -4.455596
O 3.308276 1.841589 0.241230
O 7.739778 -0.172089 -3.898171
O 2.514182 0.671281 0.059571
O 1.542537 3.193429 -0.316188
O 6.645253 3.919051 -3.775302
O 9.267175 -2.297270 -7.908658
O 6.768141 2.350055 -4.273937
O 1.777983 4.487273 1.257827
O 2.637062 -0.897711 -0.439056
O 0.015149 5.318606 3.694291
O 7.252855 3.568509 -6.593539
O 2.029469 -0.547166 2.379171
