28

F 2.987842 3.609241 2.659307
F 0.332771 5.508457 2.365079
F 2.322300 8.168090 7.389464
F 4.977372 0.949608 7.683692
F 1.065857 6.838273 0.182224
F 3.720928 2.279424 4.842161
F 4.244285 2.279424 9.866546
F 1.589214 6.838273 5.206610
F 3.340669 6.838273 2.403586
F 0.685598 2.279424 2.620800
F 1.969473 2.279424 7.645185
F 4.624544 6.838273 7.427971
F 4.072067 8.165035 0.218661
F 1.416996 0.952663 4.805724
F 1.238076 3.606186 9.830109
F 3.893147 5.511512 5.243047
F 1.238076 0.952663 9.830109
F 3.893147 8.165035 5.243047
F 4.072067 5.511512 0.218661
F 1.416996 3.606186 4.805724
F 0.332771 8.168090 2.365079
F 2.987842 0.949608 2.659307
F 4.977372 3.609241 7.683692
F 2.322300 5.508457 7.389464
W 3.105222 6.838273 6.317552
W 0.450151 2.279424 8.755604
W 2.204920 2.279424 3.731219
W 4.859991 6.838273 1.293166
