40

Li 3.449931 4.492841 2.277377
Li 2.855761 -0.056674 3.858344
Li 8.049839 1.602377 -3.403772
Li 4.044101 3.713806 -1.465741
Fe 1.494455 4.709574 -2.814778
Fe 8.049839 3.949533 -2.451373
Fe 3.449931 2.145685 1.324978
Fe 5.405407 -1.052442 5.207382
Se 5.666470 1.142931 -0.881016
Se 1.345547 6.808234 2.282344
Se 6.559956 0.690731 2.360608
Se 6.280981 4.777445 -0.008515
Se 5.554315 5.730200 -3.957110
Se 0.339906 2.554273 -0.135224
Se 0.618881 2.188500 3.743725
Se 1.233392 7.674563 -2.303577
O 2.927492 6.943211 1.045629
O 2.879432 0.182228 2.124473
O 1.130584 2.364118 1.109121
O 0.415638 6.823523 -0.831980
O 8.319393 1.518893 2.571709
O 5.395554 5.750435 -5.392748
O 0.664254 0.551075 4.445205
O 6.152101 -2.054730 4.023858
O 1.504308 5.230916 3.086169
O 7.780284 -0.309807 -2.517920
O 3.972370 4.474116 -3.175295
O 5.288569 0.434465 3.761634
O 2.295115 6.532022 -2.815011
O 7.277864 4.938421 -3.871151
O 0.747761 2.866049 4.885118
O 4.020430 1.931947 -0.357958
O 6.235607 4.649013 -1.426513
O 4.604747 -0.029078 -1.308757
O 8.821814 2.910965 -1.051762
O 1.611293 3.931647 -1.081350
O 5.769278 1.976933 1.561002
O 6.484223 2.279865 -2.236614
O 4.245402 4.116135 0.702730
O 2.654460 2.563916 2.916482
