34

Co 0.000000 3.472417 1.182048
Co 0.000000 0.000000 4.381068
P 1.951115 4.385307 6.846571
P 3.873387 3.476698 10.873523
P 2.262638 1.092813 10.312123
P 7.332336 2.005343 8.273035
P 5.480771 -0.084978 8.281233
P 3.558506 0.823629 4.254285
P 5.169248 3.207516 4.815681
P 0.099550 2.294986 6.854769
O 3.028456 0.361520 2.678634
O 3.650275 2.327839 4.555515
O 0.280561 0.943983 6.163461
O 1.314470 4.017292 5.260349
O 5.232731 0.337030 4.842062
O 6.117416 0.283037 9.867455
O 2.199154 3.963299 10.285743
O 3.724237 4.705163 7.364305
O 4.403430 3.938809 12.449170
O 3.781611 1.972490 10.572289
O 5.145972 3.808616 10.438858
O 1.702296 3.067023 7.106401
O 7.194489 -0.140063 12.092689
O 5.729590 1.233306 8.021403
O 1.890189 0.171033 8.992212
O 0.903294 1.919684 1.816231
O 5.541697 4.129296 6.135593
O 3.707649 -0.404834 7.763499
O 0.237397 4.440392 3.035115
O 6.528592 2.380645 13.311574
O 7.151325 3.356346 8.964344
O 6.595643 -1.053273 7.805682
O 0.836243 5.353603 7.322122
O 2.285914 0.491713 4.688946
