81

Mn 0.600444 0.450206 2.672706
Mn 2.171880 6.869941 10.559347
Mn 4.646132 2.810945 7.383856
Mn 3.374857 5.600770 14.567801
Mn 5.471010 3.112329 10.239130
Mn 7.566967 0.623192 5.909862
Mn 6.295954 3.412972 13.093929
Mn 8.769648 -0.645776 9.918638
Mn 10.341348 5.773627 17.804682
O 0.840569 8.109428 5.046799
O 1.207660 5.855454 3.774331
O 1.167067 6.305703 6.013236
O 0.064982 2.004982 4.300529
O 0.732345 6.319204 8.811601
O 1.922892 1.607600 2.266319
O 3.144481 3.921631 3.600107
O 1.199881 8.325220 13.421835
O 2.393711 3.247182 6.354448
O 1.050385 1.084667 6.110492
O 4.495783 5.920532 8.027905
O 1.763320 5.114678 10.512423
O 2.542758 0.142233 3.907542
O 4.379244 2.099652 4.198998
O 0.881282 0.676519 8.108066
O 3.296800 7.381153 12.330940
O 4.193751 6.447618 10.257997
O 1.418111 2.942852 10.723955
O 2.510786 4.870604 12.717349
O 4.807270 4.185853 9.087956
O 3.448112 1.764254 8.094455
O 2.591765 -0.624771 6.781903
O 3.603920 7.323727 14.528402
O 6.363891 3.788362 7.174486
O 4.730372 1.291201 6.045776
O 5.660257 0.035367 4.322287
O 6.912800 6.047982 10.054971
O 4.241117 3.945498 11.356427
O 6.700313 2.279092 9.121460
O 4.027963 0.176209 10.422439
O 5.281480 6.188471 16.155404
O 6.211649 4.932549 14.432122
O 4.579377 2.434950 13.303850
O 7.337050 -1.099667 5.949506
O 8.350551 6.848689 13.695713
O 7.493833 4.459739 12.383094
O 6.134018 2.038119 11.389789
O 8.430480 1.353531 7.760473
O 9.523439 3.281269 9.753770
O 6.747833 -0.224052 10.220556
O 7.644532 -1.156925 8.147038
O 10.061198 5.547131 12.369720
O 6.562317 4.124373 16.279174
O 8.399077 6.081642 16.570248
O 9.177410 1.109615 9.965620
O 6.443294 0.303090 12.449639
O 9.891395 5.139187 14.367155
O 8.548267 2.976432 14.122866
O 9.741166 -2.101506 7.056000
O 7.797649 2.301867 16.876988
O 9.019566 4.615732 18.211011
O 10.209764 -0.095071 11.666330
O 10.876601 4.219149 16.177120
O 9.773696 -0.082187 14.464887
O 9.734131 0.367314 16.703968
O 10.101748 -1.886065 15.430823
P 0.555299 6.667002 4.803534
P 0.799264 2.419011 5.794078
P 2.951022 8.043396 13.574103
P 2.016706 0.685792 7.334945
P 4.983298 5.708826 9.279471
P 4.267038 0.814837 4.571933
P 2.508849 4.306097 11.370470
P 7.478143 3.682136 6.350066
P 3.464141 2.541365 14.127604
P 8.432417 1.918140 9.107371
P 6.674743 5.409007 15.905944
P 5.957300 0.515207 11.198117
P 8.925468 5.538054 13.142654
P 7.990123 -1.819403 6.903808
P 10.142648 3.804853 14.683531
P 10.386164 -0.443311 15.674083
