28

Fe 1.052795 1.602665 0.009404
Fe 1.502396 6.728636 3.448934
Fe 3.607986 3.523305 3.467742
Fe 4.057587 8.649275 6.907272
Li 1.037612 1.547038 3.458150
Li 1.517579 6.673009 6.895819
Li 3.592803 3.578932 0.020858
Li 4.072770 8.704902 3.458527
O 0.507589 6.395673 5.188363
O 0.894894 8.640448 2.998602
O 0.947127 8.607232 0.440098
O 1.236866 0.540790 1.724636
O 1.318325 5.666760 1.733702
O 1.608063 3.481262 3.018241
O 1.660297 3.514478 0.459736
O 2.047602 1.269693 5.165606
O 3.062779 8.982238 1.751071
O 3.450085 6.737463 6.456941
O 3.502318 6.770679 3.898436
O 3.792056 4.585181 5.182975
O 3.873516 9.711151 5.192040
O 4.163254 1.644709 6.476579
O 4.215487 1.611492 3.918074
O 4.602793 3.856268 1.728314
P 1.025812 4.140369 1.729215
P 1.529379 9.266340 1.729124
P 3.581003 0.985601 5.187553
P 4.084570 6.111571 5.187462
