92

Li 2.475940 3.501068 4.063472
Li 9.429264 13.333320 15.475155
Ca 7.857646 11.223861 9.383285
Ca 12.610327 18.098730 15.942148
Ca 12.994442 12.751556 18.733012
Ca 13.210496 14.894651 20.271610
Ca 1.066529 1.395244 6.831455
Ca 13.484332 18.876792 18.438635
Ca 0.816835 4.940501 6.534897
Ca 4.913191 12.303210 15.410420
Ca 11.866516 12.726283 13.855706
Ca 2.226135 7.066324 8.953702
Ca 8.019853 7.309007 11.374402
Ca 5.657002 12.319876 11.333036
Ca 6.531007 5.259074 8.883507
Ca 6.257172 9.038405 6.909923
Ca 0.904322 7.036706 3.993535
Ca 6.041118 8.275085 13.485155
Ca 9.179459 7.334989 7.474716
Ca 7.770159 14.963291 17.853131
Mn 0.028453 0.040234 0.046697
Mn 6.981778 9.872485 11.458380
P 9.544578 13.876749 11.426740
P 2.591254 8.500814 6.620019
P 11.552128 11.253566 11.895097
P 10.690417 15.472892 13.843285
P 2.589043 8.500764 11.014340
P 9.542367 9.036935 9.404157
P 10.091235 9.049234 14.033992
P 3.137910 4.056746 9.039211
P 10.664564 15.080078 17.502509
P 3.737092 10.722200 8.729919
P 11.202418 11.245730 16.140907
P 3.711240 5.247827 6.090826
P 4.249093 5.652113 11.440947
P 4.598804 10.741508 13.493453
O 8.554828 7.974725 8.426346
O 9.353139 13.386315 10.517481
O 1.245410 7.147345 7.011309
O 12.086825 17.155351 13.591988
O 5.133500 10.031829 9.642359
O 8.986393 10.310382 8.853341
O 8.649449 12.386520 11.984856
O 5.225688 7.325165 11.010234
O 4.802314 11.978906 8.180203
O 3.458598 11.510542 9.221705
O 1.553470 4.932215 4.951917
O 3.545083 3.627081 6.465049
O 8.451502 14.709126 12.654437
O 11.755638 14.564453 14.355450
O 4.689948 5.774964 12.574451
O 11.643272 12.550724 16.694637
O 2.033069 7.164994 11.743196
O 8.198734 14.582894 10.807907
O 8.797318 10.009978 15.292358
O 1.738150 9.542431 10.622920
O 12.415773 12.190148 15.627621
O 4.285946 6.060482 7.034024
O 11.656984 12.173146 10.908074
O 8.691475 7.907158 10.077707
O 5.305373 11.990178 12.790461
O 6.019243 11.567917 14.711310
O 1.696124 9.569851 5.922962
O 12.438232 14.852556 18.043773
O 1.498177 9.187125 7.919354
O 9.584004 7.997785 13.261449
O 12.258697 10.087535 12.376377
O 9.118576 10.185266 11.313996
O 12.495263 10.389003 14.748188
O 4.703660 9.258948 13.684542
O 5.541939 4.846913 10.022957
O 5.484908 6.406098 5.952437
O 5.049379 9.644986 11.751303
O 1.843994 4.665916 10.470005
O 2.392528 5.174193 8.656878
O 2.630679 3.559236 7.994994
O 2.399815 7.676174 5.874670
O 11.919917 15.064120 12.378105
O 2.165251 9.965321 12.769087
O 1.601504 7.658286 9.928762
O 12.179012 10.253839 17.017196
O 10.498408 16.194885 16.535100
O 10.411922 15.579625 14.669362
O 8.506795 13.414708 17.025579
O 8.873485 9.886558 13.309153
O 5.462448 4.965700 11.727491
O 4.966593 9.614769 7.607390
O 9.345852 7.921821 14.752633
O 12.972567 12.580509 12.867471
O 1.920161 2.559289 9.459450
O 12.002704 9.956673 10.251218
O 11.239270 15.892733 18.445707
