68

Fe 0.123962 2.217592 2.284081
Fe 4.580821 7.460845 6.852244
Fe 4.828744 3.025661 2.284081
Fe 9.285603 8.268914 6.852244
O 1.005487 7.471027 5.364804
O 1.005487 7.471027 8.339683
O 1.043775 9.924649 6.852244
O 1.064655 2.820870 6.852244
O 1.198675 3.953832 2.284081
O 1.282872 1.363634 0.859070
O 1.282872 1.363634 3.709092
O 1.447257 4.984383 5.596456
O 1.447257 4.984383 8.108032
O 1.381691 8.942777 2.284081
O 1.870715 6.096361 1.102362
O 1.870715 6.096361 3.465801
O 2.834067 0.853109 5.670524
O 2.834067 0.853109 8.033963
O 3.323091 3.699524 6.852244
O 3.257525 10.227636 1.028293
O 3.257525 10.227636 3.539869
O 3.421910 6.606886 5.427233
O 3.421910 6.606886 8.277255
O 3.506107 9.197085 6.852244
O 3.640128 8.064123 2.284081
O 3.661007 4.681396 2.284081
O 3.699295 2.227774 0.796642
O 3.699295 2.227774 3.771521
O 5.710269 8.258731 5.364804
O 5.710269 8.258731 8.339683
O 5.748557 5.805109 6.852244
O 5.769437 2.422383 6.852244
O 5.903457 1.289421 2.284081
O 5.987654 3.879619 0.859070
O 5.987654 3.879619 3.709092
O 6.152039 0.258870 5.596456
O 6.152039 0.258870 8.108032
O 6.086473 6.786982 2.284081
O 6.575498 9.633397 1.102362
O 6.575498 9.633397 3.465801
O 7.538849 4.390144 5.670524
O 7.538849 4.390144 8.033963
O 8.027873 1.543729 6.852244
O 7.962307 5.502123 1.028293
O 7.962307 5.502123 3.539869
O 8.126693 9.122872 5.427233
O 8.126693 9.122872 8.277255
O 8.210889 6.532673 6.852244
O 8.344910 7.665636 2.284081
O 8.365790 0.561856 2.284081
O 8.404077 3.015479 0.796642
O 8.404077 3.015479 3.771521
P 1.865540 4.096721 6.852244
P 1.993529 6.398132 5.014134
P 1.993529 6.398132 8.690354
P 2.208782 5.061207 2.284081
P 2.496000 10.304460 6.852244
P 2.711253 1.154879 0.445971
P 2.711253 1.154879 4.122191
P 2.839242 9.339974 2.284081
P 6.570322 1.146532 6.852244
P 6.698311 9.331627 5.014134
P 6.698311 9.331627 8.690354
P 6.913564 0.182046 2.284081
P 7.200782 5.425299 6.852244
P 7.416035 4.088374 0.445971
P 7.416035 4.088374 4.122191
P 7.544024 6.389784 2.284081
