26

Mn 2.223169 3.074134 4.936144
Mn 2.223169 2.945488 9.818040
O 1.604433 6.186624 2.239929
O 1.604433 5.500190 7.146367
O 0.546744 3.681717 8.436350
O 0.600849 3.702870 5.866358
O 0.546744 2.130008 3.628392
O 0.600849 2.115565 1.059965
O 2.139029 4.368640 1.130022
O 2.186237 4.453918 3.690428
O 5.428424 8.130290 7.386799
O 6.296681 7.743517 2.767831
O 3.975004 3.888747 6.280769
O 2.139029 1.640547 6.126294
O 3.891970 3.767824 8.851211
O 2.186237 1.561124 8.693947
O 3.891970 2.458755 4.032576
O 3.975004 2.348135 1.472322
O 5.428424 4.030744 2.690946
O 6.296681 4.525197 7.785674
P 0.418848 4.341926 7.138777
P 1.460404 4.798511 2.351665
P 0.418848 1.453939 2.389615
P 1.460404 1.126513 7.389469
P 4.769091 3.653442 7.599645
P 4.769091 2.681904 2.766159
