28

Li 4.571432 0.099053 4.495245
Li 4.571432 -0.541147 -0.383591
Cr 2.224260 2.737135 4.560878
Cr 2.224260 2.671539 9.473954
P 1.611205 0.809105 7.122230
P 4.835745 3.274710 6.772515
P 0.119901 1.440489 2.379567
P 1.611205 4.658862 2.025569
P 0.119901 4.171688 7.156960
P 4.835745 1.881413 1.930216
O 2.371093 4.224762 0.735361
O 6.484405 -1.060683 0.569852
O 2.371093 1.169712 5.793466
O 4.191029 1.455107 3.265662
O 4.191029 -1.860413 8.336404
O 2.338102 4.277570 3.310807
O 1.486157 -0.581055 7.143092
O 5.266808 -2.411680 2.340372
O 6.467874 1.212576 1.593353
O 1.486157 0.437332 2.183793
O 3.918242 1.763231 0.722427
O 0.420525 2.138975 3.564293
O 2.338102 1.120100 8.373881
O 6.467874 -1.838065 6.651245
O 3.918242 3.481621 5.548955
O 5.266808 1.902343 7.040977
O 0.420525 3.444135 8.410868
O 6.484405 0.433589 5.407253
