28

Li 2.049176 1.188516 5.702008
Li 5.210327 6.887817 -0.940357
Mn 1.141295 1.245718 2.620901
Mn 6.118207 6.830615 2.140756
P 6.119761 3.960788 0.339365
P 1.139742 4.115544 4.422293
P 2.736375 5.978059 2.698379
P 2.154417 5.924335 -0.135361
P 4.523128 2.098274 2.063279
P 5.105086 2.151998 4.897019
O 4.881660 3.403206 1.214645
O 6.087659 5.489973 0.422866
O 4.710633 2.765302 3.499261
O 3.370849 6.376252 -0.871550
O 1.685591 7.067699 2.928543
O 2.548870 5.311031 1.262396
O 5.672082 3.568487 5.538932
O 5.573912 1.008633 1.833115
O 2.377843 4.673127 3.547013
O 1.019837 6.908118 0.047111
O 6.239666 1.168214 4.714547
O 1.587421 4.507845 -0.777275
O 3.072940 1.721984 1.860497
O 7.119620 5.549106 3.381544
O 1.171843 2.586359 4.338791
O 3.888654 1.700081 5.633208
O 0.139883 2.527226 1.380114
O 4.186563 6.354349 2.901160
