16

Li 2.814115 1.803975 4.772402
Li 2.814115 1.803975 1.601083
Li 0.286164 3.647451 1.585659
Li 0.286164 3.647451 4.787826
Mn 2.827023 4.547890 0.000000
Mn 0.299072 0.903536 3.186743
Si 0.252714 0.974987 0.000000
Si 2.780665 4.476438 3.186743
O 3.655912 1.015279 0.000000
O 0.820007 1.747667 5.023161
O 3.347957 3.703759 1.836418
O 1.127962 4.436147 3.186743
O 0.734253 4.834057 0.000000
O 3.262204 0.617369 3.186743
O 3.347957 3.703759 4.537068
O 0.820007 1.747667 1.350325
