28

Co 0.087136 6.950754 1.328361
Co 3.236398 1.747502 1.328361
Co 3.410671 8.659002 3.867832
Co 6.559932 3.455750 3.867832
Li 0.061552 8.794339 3.855744
Li 3.261983 3.591087 3.855744
Li 3.385086 6.815417 1.316273
Li 6.585517 1.612165 1.316273
O 0.258485 3.491018 0.624766
O 0.397894 8.725094 0.758205
O 1.736852 0.648148 1.064074
O 1.475357 3.923460 2.958325
O 1.848178 9.126712 2.958325
O 1.586682 5.851400 1.064074
O 2.925641 3.521842 0.758205
O 3.065050 8.694270 0.624766
O 3.582019 1.712234 3.164236
O 3.721421 6.884662 3.297675
O 5.060387 4.555104 3.603544
O 4.798891 1.279792 0.418855
O 5.171712 6.483044 0.418855
O 4.910216 9.758356 3.603544
O 6.249182 1.681410 3.297675
O 6.388584 6.915486 3.164236
Si 1.551991 4.229276 1.334730
Si 1.771544 9.432528 1.334730
Si 4.875525 0.973976 3.874201
Si 5.095078 6.177228 3.874201
