24

Mn 0.000000 0.000000 0.000000
Mn 0.000000 0.000000 6.798520
Mn 3.658202 -0.302293 4.527786
Mn 1.828873 2.140695 2.257958
Mn 1.831602 2.139331 9.056479
Mn 3.660931 -0.303658 11.326306
F 0.498924 1.275375 7.928901
F 4.161760 0.976222 12.453884
F 4.990879 0.561662 5.655364
F 1.328044 0.860815 1.130381
F 3.205030 0.993910 3.461773
F 0.094150 1.938440 3.323971
F 2.284774 0.843128 10.122491
F 5.395654 -0.101402 10.260294
F 1.377738 3.433259 7.989114
F 1.928656 -0.504517 12.393671
F 4.112066 -1.596222 5.595151
F 3.561148 2.341554 1.190593
F 5.039245 -1.448223 12.531349
F 3.755558 1.632761 7.851436
F 0.450559 3.285260 1.052915
F 1.734245 0.204277 5.732829
F 2.327820 -1.163910 3.399260
F 3.161984 -1.580992 10.197780
