36

Bi 1.192328 5.468404 2.900831
Bi 2.978342 9.828003 6.041041
Bi 5.808511 3.197308 7.790326
Bi 7.594551 7.556981 10.930513
Li 5.992526 4.050321 5.122871
Li 2.794371 8.975038 8.708503
O 1.220411 1.555588 2.360934
O 2.006073 1.746599 5.222502
O 1.925374 4.296353 4.701120
O 1.346617 2.829047 6.631318
O 4.675837 3.338083 3.669013
O 2.258933 7.564736 3.701927
O 0.300810 5.283261 7.174953
O 4.206749 3.731706 6.147534
O 1.452051 7.712438 6.322671
O 5.277317 7.758417 4.111977
O 1.327321 7.166094 8.482954
O 4.348095 9.195103 5.083951
O 4.438802 3.830238 8.747448
O 7.459593 5.859291 5.348403
O 3.509597 5.266951 9.719419
O 7.334828 5.312860 7.508688
O 4.580121 9.293622 7.683815
O 8.486157 7.742046 6.656499
O 6.527955 5.460558 10.129507
O 4.110989 9.687223 10.162373
O 7.440236 10.196368 7.199965
O 6.861593 8.729041 9.130187
O 6.780780 11.278755 8.608832
O 7.566442 11.469654 11.470408
P 2.328833 3.198997 5.668566
P 0.477726 6.783600 7.272887
P 3.983316 8.497604 3.960855
P 4.803581 4.527720 9.870553
P 8.309171 6.241707 6.558488
P 6.458046 9.826370 8.162752
