68

Fe 4.759709 3.528492 7.844244
Fe 6.711875 3.580911 5.142403
Fe 5.049331 6.151976 5.682459
Fe 8.001685 8.421145 6.074034
Fe 6.245749 8.486633 8.605644
Fe 9.664229 1.311742 5.533977
Fe 1.341229 6.034068 1.842292
Fe 1.807355 1.259322 7.452669
Fe 8.467811 3.646400 11.684411
Fe 0.144811 8.368725 7.992726
Fe 3.563291 1.193834 4.921059
Fe 3.097165 6.099556 8.384300
P 8.229245 0.687894 10.564018
P 1.620081 3.289558 9.256406
P 3.324725 4.152340 3.800666
P 1.899854 4.030492 6.016352
P 1.579795 8.992573 2.962685
P 7.909186 5.649976 7.510351
P 6.524601 1.550675 6.946140
P 3.284439 8.129792 6.580563
P 6.484315 5.528128 9.726037
P 8.188960 6.390909 4.270297
P 6.804374 0.809742 3.706085
P 3.004666 8.870725 9.820618
O 9.717277 0.213261 11.198946
O 8.446751 6.964767 12.111309
O 2.893275 9.412686 2.085338
O 2.123922 2.492933 5.955429
O 4.812757 4.626973 4.435595
O 1.558970 7.468897 3.056199
O 3.345550 2.628663 3.707153
O 7.685118 7.187534 7.571274
O 1.362289 2.715700 1.415394
O 4.489578 9.292407 9.384696
O 0.414942 4.452173 6.452274
O 6.567476 4.969574 6.747483
O 8.146084 0.129341 4.468953
O 4.642501 7.585488 7.463767
O 7.028442 2.347300 3.645162
O 3.241564 4.710893 6.779220
O 2.011246 4.572453 4.678013
O 6.585878 9.671619 7.009935
O 0.262019 2.745255 8.373203
O 6.836283 6.996839 4.862858
O 6.463491 7.051804 9.819550
O 8.127683 4.831386 4.206501
O 1.662956 9.551127 9.057750
O 0.091764 9.467207 2.327757
O 3.542231 7.555934 5.347958
O 6.266809 2.124533 8.178745
O 6.915766 0.267781 11.441365
O 5.319462 0.388061 4.142007
O 7.877277 2.156605 6.353578
O 8.250070 2.211571 10.470504
O 9.547021 6.935213 5.153500
O 4.996284 5.053494 9.091108
O 1.988469 0.080251 4.116814
O 1.681358 4.849082 9.320202
O 6.892989 4.759983 10.880165
O 5.166539 2.094979 6.062936
O 2.972757 2.683629 8.663845
O 2.780598 7.333167 9.881541
O 3.223162 0.008848 6.516768
O 1.931763 7.523863 7.173125
O 7.797795 5.108015 8.848690
O 7.820571 9.600216 9.409889
O 9.394098 5.228295 7.074429
O 2.916051 4.920485 2.646538
