68

Ni 0.102888 2.315078 2.295835
Ni 4.657803 7.674029 6.887505
Ni 4.863579 3.043874 2.295835
Ni 9.418495 8.402825 6.887505
O 1.028700 7.595896 5.357093
O 1.028700 7.595896 8.417918
O 1.120438 2.965880 6.887505
O 1.106051 10.089330 6.887505
O 1.172939 4.113971 2.295835
O 1.308190 1.474558 0.847733
O 1.308190 1.474558 3.743938
O 1.545720 5.116716 5.625439
O 1.545720 5.116716 8.149572
O 1.364224 9.165201 2.295835
O 1.935469 6.227788 1.113296
O 1.935469 6.227788 3.478374
O 2.825223 0.868836 5.704967
O 2.825223 0.868836 8.070044
O 3.396468 3.806249 6.887505
O 3.214971 10.475668 1.033769
O 3.214971 10.475668 3.557902
O 3.452501 6.833510 5.439403
O 3.452501 6.833510 8.335608
O 3.587752 9.472922 6.887505
O 3.654640 4.730379 2.295835
O 3.640253 8.324831 2.295835
O 3.731992 2.236944 0.765422
O 3.731992 2.236944 3.826248
O 5.789391 8.480959 5.357093
O 5.789391 8.480959 8.417918
O 5.881130 2.393072 6.887505
O 5.866743 5.987524 6.887505
O 5.933631 1.244981 2.295835
O 6.068882 3.884393 0.847733
O 6.068882 3.884393 3.743938
O 6.306412 0.242235 5.625439
O 6.306412 0.242235 8.149572
O 6.124915 6.911654 2.295835
O 6.696160 9.849067 1.113296
O 6.696160 9.849067 3.478374
O 7.585914 4.490116 5.704967
O 7.585914 4.490116 8.070044
O 8.157159 1.552703 6.887505
O 7.975662 5.601187 1.033769
O 7.975662 5.601187 3.557902
O 8.213192 9.243345 5.439403
O 8.213192 9.243345 8.335608
O 8.348444 6.603933 6.887505
O 8.415331 0.628573 2.295835
O 8.400945 7.752024 2.295835
O 8.492683 3.122007 0.765422
O 8.492683 3.122007 3.826248
P 1.945199 4.227495 6.887505
P 2.044698 6.540826 5.024573
P 2.044698 6.540826 8.750438
P 2.226214 5.174968 2.295835
P 2.534478 10.533920 6.887505
P 2.715993 1.181874 0.432903
P 2.715993 1.181874 4.158768
P 2.815492 9.586446 2.295835
P 6.705891 1.131457 6.887505
P 6.805389 9.536029 5.024573
P 6.805389 9.536029 8.750438
P 6.986905 0.183984 2.295835
P 7.295169 5.542935 6.887505
P 7.476685 4.177078 0.432903
P 7.476685 4.177078 4.158768
P 7.576183 6.490408 2.295835
