128

Na 8.214536 0.071635 7.666857
Na 8.004439 2.598135 13.633328
Na 5.102181 3.095097 3.802703
Na 7.643421 8.098465 5.510192
Na 2.559061 8.020714 6.027922
Na 2.920079 2.520384 9.700618
Na 7.630713 5.381059 15.149359
Na 2.932787 5.237789 0.061452
Na 7.630713 5.381059 7.666857
Na 6.031251 2.452646 11.408108
Na 2.920079 2.520384 13.115597
Na 5.479826 0.103959 1.710973
Na 10.365423 5.413383 5.894432
Na 8.004439 2.598135 9.182888
Na 8.214536 0.071635 15.149359
Na 7.643421 8.098465 2.095213
Na 8.201828 2.789041 5.510192
Na 0.198076 5.205466 9.316378
Na 2.722689 2.711289 6.027922
Na 9.813998 7.762070 11.408108
Na 5.083674 10.514890 9.316378
Na 5.461319 7.523751 11.408108
Na 2.361671 7.829808 9.700618
Na 2.348963 10.547214 7.543953
Na 5.479826 0.103959 5.894432
Na 7.840810 7.907559 13.633328
Na 0.198076 5.205466 13.499838
Na 2.722689 2.711289 1.577483
Na 7.840810 7.907559 9.182888
Na 4.532248 8.166202 3.802703
Na 0.749501 2.856778 3.802703
Na 10.365423 5.413383 1.710973
Na 10.383931 2.214327 11.408108
Na 8.201828 2.789041 2.095213
Na 2.361671 7.829808 13.115597
Na 2.559061 8.020714 1.577483
Na 5.083674 10.514890 13.499838
Na 2.348963 10.547214 0.061452
Na 2.932787 5.237789 7.543953
Na 0.179569 8.404521 3.802703
Li 0.024909 10.484499 13.083335
Li 10.538591 0.134360 2.127475
Li 0.024909 10.484499 9.732880
Li 5.306658 5.443774 2.127475
Li 5.256841 5.175064 13.083335
Li 5.256841 5.175064 9.732880
Li 10.538591 0.134360 5.477930
Li 5.306658 5.443774 5.477930
Mn 5.217238 7.942707 7.596765
Mn 5.346261 2.676141 15.202171
Mn 5.217238 7.942707 0.008640
Mn 2.685981 0.219619 3.802703
Mn 2.416559 5.233192 11.408108
Mn 5.346261 2.676141 7.614045
Mn 0.064511 2.633283 0.008640
Mn 0.064511 2.633283 7.596765
Mn 7.967731 5.089805 11.408108
Mn 2.865191 10.542616 11.408108
Mn 10.498988 7.985565 15.202171
Mn 2.595769 5.529043 3.802703
Mn 7.877518 10.399229 11.408108
Mn 8.146940 5.385657 3.802703
Mn 7.698309 0.076233 3.802703
Mn 10.498988 7.985565 7.614045
O 1.214232 6.479728 11.408108
O 7.217849 0.502378 12.814727
O 6.495982 9.448545 3.802703
O 1.181390 6.800565 15.028068
O 4.749751 3.859028 1.090813
O 10.031500 1.450397 8.696218
O 4.851974 7.229981 6.074102
O 3.048267 1.915046 3.802703
O 6.463140 9.127707 7.422662
O 4.067528 1.170303 11.408108
O 9.093874 7.183131 7.059398
O 8.617872 10.489904 2.366969
O 0.531999 9.168452 1.090813
O 8.627400 5.811802 12.814727
O 1.936099 4.807046 2.396098
O 3.345650 10.116471 2.396098
O 1.469626 3.435718 8.151412
O 3.666010 9.020531 11.408108
O 6.751375 1.873706 0.546007
O 1.469626 3.435718 14.664803
O 8.627400 5.811802 10.001488
O 0.531999 9.168452 6.514592
O 5.813749 6.759821 14.119997
O 3.345650 10.116471 5.209322
O 7.227377 5.180480 2.366969
O 5.813749 6.759821 8.696218
O 8.947759 6.907741 3.802703
O 9.599950 10.602538 11.408108
O 4.851974 7.229981 1.531303
O 0.429776 1.920557 6.074102
O 10.031500 1.450397 14.119997
O 7.515233 8.703803 11.408108
O 1.181390 6.800565 7.788148
O 7.217849 0.502378 10.001488
O 9.382109 3.818283 7.422662
O 4.100360 1.491141 7.788148
O 9.382109 3.818283 0.182743
O 6.245299 5.293114 11.408108
O 10.133723 8.698292 9.136708
O 0.429776 1.920557 1.531303
O 8.330016 3.394379 11.408108
O 1.945628 0.128945 12.843841
O 9.349267 4.139121 3.802703
O 4.318200 5.325735 3.802703
O 3.812124 8.745142 14.664803
O 10.133723 8.698292 13.679508
O 8.617872 10.489904 5.238436
O 6.897490 1.598317 3.802703
O 7.227377 5.180480 5.238436
O 5.711526 3.388867 9.136708
O 6.751375 1.873706 7.059398
O 1.615740 3.711107 11.408108
O 1.936099 4.807046 5.209322
O 3.812124 8.745142 8.151412
O 9.093874 7.183131 0.546007
O 5.711526 3.388867 13.679508
O 4.749751 3.859028 6.514592
O 6.463140 9.127707 0.182743
O 1.945628 0.128945 9.972375
O 2.233483 7.224470 3.802703
O 0.963550 0.016311 3.802703
O 4.100360 1.491141 15.028068
O 3.336122 5.438369 12.843841
O 3.336122 5.438369 9.972375
