84

Li 3.170848 5.144038 7.408399
Li 9.512543 6.516421 7.782402
Mn 4.055489 5.426027 9.980904
Mn 4.622880 9.015753 11.448727
Mn 8.126223 2.670846 3.764205
Mn 1.718815 1.272323 3.368072
Mn 6.228483 2.869605 1.304463
Mn 8.607773 6.328522 5.177499
Mn 0.113212 7.418471 13.512336
Mn 10.417312 6.704319 10.387306
Mn 2.286206 4.862048 4.835894
Mn 10.898863 10.361995 11.800599
P 7.101684 6.455468 10.895751
P 0.522327 7.325393 6.589483
P 10.070574 8.390872 13.236021
P 8.954512 4.641969 2.328783
P 5.819380 2.962685 8.227316
P 10.746294 9.474409 8.805435
P 12.127947 4.157787 8.481673
P 6.897139 8.875054 7.083131
P 0.775818 5.159877 10.532996
P 2.636915 3.186714 1.988771
P 5.565878 5.128198 4.283802
P 4.403419 8.210533 8.480652
P 8.278791 3.558432 6.759369
P 3.704780 7.101361 12.828028
P 11.923402 6.577374 4.669053
P 1.938276 2.077542 6.336147
O 10.623671 9.844460 13.669410
O 8.796096 7.968707 3.987859
O 10.651270 6.548676 5.531918
O 10.143694 8.080194 8.903085
O 0.269154 4.897239 4.452977
O 8.401414 3.188381 1.895395
O 3.906028 6.767663 8.571304
O 6.072541 5.390837 10.363822
O 2.374889 6.717756 3.579077
O 4.311617 4.972815 5.125227
O 12.537290 10.585037 6.243804
O 3.490215 9.144757 7.724253
O 0.121050 0.599858 8.674072
O 12.408389 7.043556 10.577968
O 9.991468 8.417190 11.804063
O 11.130030 10.236658 10.028288
O 6.411365 7.915762 11.379516
O 1.618591 1.244384 5.116077
O 9.122731 2.510389 7.483444
O 10.228989 5.064134 11.576945
O 6.616696 5.989285 4.986836
O 2.851480 1.143318 7.092546
O 4.185963 8.578509 13.167122
O 2.030078 5.315261 9.691571
O 6.487795 2.447805 9.321000
O 0.109090 6.571818 11.261243
O 7.666970 5.825591 12.097097
O 4.443613 3.954963 8.549076
O 8.881392 4.952647 6.661720
O 8.175866 7.823510 6.617256
O 6.220645 9.688217 6.142727
O 9.033618 4.615651 3.760741
O 9.902354 10.522453 8.081360
O 7.274356 9.845349 8.232844
O 1.395858 4.347853 11.627580
O 2.693825 3.301159 3.428699
O 5.594263 1.806042 7.186115
O 3.647870 6.986916 11.388100
O 11.750730 3.187492 7.331960
O 12.179365 9.082665 7.971146
O 12.613720 5.117079 4.185288
O 3.966806 3.570319 11.237722
O 0.509669 2.406604 7.177587
O 1.898082 6.333113 6.267723
O 2.435668 3.520413 6.245495
O 11.358116 7.207250 3.467707
O 6.232605 3.716257 3.555556
O 10.849220 5.209331 8.947548
O 0.747432 8.482034 7.630684
O 4.945837 5.940222 3.189219
O 4.723104 9.043692 9.700722
O 6.845720 3.950177 7.593658
O 2.155732 1.709567 1.649677
O 5.832026 7.881472 7.639211
O 7.895055 2.796183 5.536516
O 8.373815 6.484166 10.032886
