15

Bi 1.200889 2.040002 2.446271
Bi 2.785620 5.432122 4.929843
Bi 6.809687 8.857733 6.481789
P 4.152474 3.587060 2.283270
P 6.414846 5.958971 4.458896
O 0.607330 4.592993 6.005136
O 1.845668 7.202256 6.033186
O 1.554844 6.778752 3.585017
O 6.610867 4.457482 4.921326
O 3.492116 3.550239 3.595676
O 0.188738 3.930582 3.803625
O 3.947702 5.005462 1.700307
O 3.366216 2.546795 1.493562
O 5.804880 3.177615 2.400976
O 4.825197 6.499876 4.588833
