24

Li 1.496061 0.721048 7.421886
Li 3.882088 6.205747 4.551043
Li 4.054361 4.617036 6.895729
Li 1.323789 2.309758 5.077201
Mn 4.156207 2.419616 3.459547
Mn 1.221943 4.507179 8.513383
P 1.169285 4.368898 3.513839
P 1.649780 5.968534 6.104804
P 4.208865 2.557897 8.459090
P 3.728370 0.958261 5.868125
O 2.205757 0.617570 5.671054
O 3.172393 6.309224 6.301875
O 1.282097 4.490311 6.374804
O 3.893856 1.039399 7.411126
O 5.113179 4.586592 4.051993
O 3.141216 3.587171 8.217011
O 2.236934 3.339624 3.755919
O 1.484294 5.887396 4.561804
O 0.730530 0.905410 3.305071
O 1.276429 4.876110 10.568772
O 4.647620 6.021385 8.667858
O 4.101721 2.050684 1.404158
O 4.096053 2.436484 5.598125
O 0.264971 2.340203 7.920937
