80

Na 7.526843 7.576769 6.558050
Na 0.868376 2.309359 0.446418
Na 5.065986 2.958051 0.446418
Na 7.526843 8.225461 11.776846
Na 5.065986 2.309359 5.665214
Na 3.329233 8.225461 6.558050
Na 0.868376 2.958051 5.665214
Na 3.329233 7.576769 11.776846
V 7.827048 7.901115 3.055816
V 2.142796 5.059579 1.639201
V 2.142796 0.207831 4.472431
V 3.629438 7.901115 3.055816
V 2.054814 10.326989 10.584064
V 6.252423 10.326989 7.750833
V 4.765781 2.633705 9.167448
V 6.252423 5.475241 10.584064
V 0.568172 2.633705 9.167448
V 6.340405 0.207831 1.639201
V 6.340405 5.059579 4.472431
V 2.054814 5.475241 7.750833
P 7.293305 5.174135 1.472573
P 7.293305 0.093275 4.639059
P 3.095695 0.093275 1.472573
P 5.299524 10.441544 10.750691
P 5.299524 5.360685 7.584206
P 1.101914 5.360685 10.750691
P 1.101914 10.441544 7.584206
P 3.095695 5.174135 4.639059
O 2.097042 9.941878 8.665329
O 6.294651 9.941878 9.669568
O 2.100568 0.592942 2.553697
O 6.722925 0.604256 5.988153
O 7.142392 1.531152 1.087675
O 5.869904 5.871666 6.235112
O 5.132434 4.177140 10.345906
O 7.142392 3.736258 5.023957
O 7.309986 2.633705 9.167448
O 2.100568 4.674468 3.557936
O 3.915178 6.050294 7.807207
O 1.672294 9.930564 6.235112
O 0.282432 4.484525 1.695575
O 7.442538 6.710512 1.466376
O 2.525316 0.604256 0.123479
O 2.097042 5.860352 9.669568
O 6.298177 4.674468 2.553697
O 6.294651 5.860352 8.665329
O 3.262785 9.444550 4.234273
O 8.112787 6.050294 10.527690
O 4.480042 0.782885 1.695575
O 5.869904 9.930564 12.099785
O 5.282843 7.901115 3.055816
O 2.944783 1.531152 5.023957
O 6.722925 4.663154 0.123479
O 7.460395 9.444550 1.877359
O 7.442538 9.091718 4.645256
O 2.525316 4.663154 5.988153
O 3.915178 9.751935 10.527690
O 1.252827 9.003668 11.135590
O 0.934824 4.177140 7.988991
O 1.085233 7.901115 3.055816
O 5.450437 9.003668 7.199307
O 0.952681 1.443102 7.578008
O 3.112376 2.633705 9.167448
O 4.480042 4.484525 4.416058
O 3.244929 6.710512 4.645256
O 5.150291 3.824308 7.578008
O 1.252827 6.798562 7.199307
O 0.934824 1.090270 10.345906
O 5.450437 6.798562 11.135590
O 2.944783 3.736258 1.087675
O 5.132434 1.090270 7.988991
O 3.262785 6.357679 1.877359
O 0.952681 3.824308 10.756888
O 5.150291 1.443102 10.756888
O 7.460395 6.357679 4.234273
O 0.282432 0.782885 4.416058
O 6.298177 0.592942 3.557936
O 8.112787 9.751935 7.807207
O 3.244929 9.091718 1.466376
O 1.672294 5.871666 12.099785
