72

Li 0.000000 0.222164 2.498113
Li 0.000000 8.070327 7.494340
Li 6.785091 3.924081 7.494340
Li 6.785091 4.368410 2.498113
Bi 6.785091 7.275359 7.494340
Bi 0.000000 5.163378 2.498113
Bi 0.000000 3.129114 7.494340
Bi 6.785091 1.017132 2.498113
P 4.944296 2.755147 0.024921
P 8.625886 2.755147 4.971306
P 1.840795 6.901393 0.024921
P 11.384175 4.450248 9.922307
P 4.944296 5.537344 5.021148
P 8.971098 0.304003 9.922307
P 8.625886 5.537344 9.967533
P 1.840795 1.391099 5.021148
P 4.599084 0.304003 5.066374
P 8.971098 7.988488 4.926080
P 2.186007 3.842243 0.070147
P 2.186007 4.450248 5.066374
P 11.384175 3.842243 4.926080
P 11.729387 1.391099 9.967533
P 4.599084 7.988488 0.070147
P 11.729387 6.901393 4.971306
O 8.752645 1.029579 1.232150
O 12.691689 6.915283 3.788809
O 10.400798 0.707739 9.334141
O 3.169384 0.707739 5.654540
O 0.878493 6.915283 1.207418
O 11.191316 2.890845 0.236212
O 3.615707 3.438506 0.658313
O 5.906598 2.769037 1.207418
O 5.906598 5.523454 6.203645
O 12.424886 4.664767 8.848178
O 4.406225 7.037091 4.760015
O 8.194789 4.939903 1.263296
O 5.375393 4.939903 3.732931
O 1.145296 4.664767 6.140503
O 3.615707 4.853985 5.654540
O 1.967554 5.175825 3.764077
O 4.817537 7.262912 8.760304
O 0.878493 1.377209 6.203645
O 4.406225 1.255400 9.756242
O 9.954475 4.853985 9.334141
O 12.424886 3.627724 3.851951
O 11.602628 3.116666 6.228376
O 2.378866 2.890845 4.760015
O 12.691689 1.377209 8.785036
O 11.602628 5.175825 1.232150
O 5.639795 0.518521 6.140503
O 1.967554 3.116666 8.760304
O 4.817537 1.029579 3.764077
O 2.378866 5.401646 9.756242
O 12.160484 0.793658 1.263296
O 7.930387 0.518521 8.848178
O 8.194789 3.352588 6.259523
O 7.930387 7.773970 3.851951
O 8.752645 7.262912 6.228376
O 1.409711 0.793658 3.732931
O 3.169384 7.584752 0.658313
O 9.163958 1.255400 5.232439
O 10.400798 7.584752 4.337914
O 12.160484 7.498833 6.259523
O 7.663584 2.769037 3.788809
O 1.409711 7.498833 8.729158
O 9.163958 7.037091 0.236212
O 5.375393 3.352588 8.729158
O 9.954475 3.438506 4.337914
O 5.639795 7.773970 1.144276
O 7.663584 5.523454 8.785036
O 11.191316 5.401646 5.232439
O 1.145296 3.627724 1.144276
