72

Li 4.126232 10.268169 0.937961
Li 6.912238 3.681407 4.564715
Li 0.446742 9.492116 5.607211
Li 3.232748 2.905355 9.233965
Sb 7.229992 2.813970 0.489684
Sb 0.128988 10.359553 9.682242
Sb 3.808478 9.400732 5.012992
Sb 3.550502 3.772792 5.158935
P 1.742342 5.232906 2.791677
P 5.211225 7.735849 2.357033
P 5.827245 1.149087 3.145643
P 2.945998 1.498409 2.351062
P 1.937148 11.819667 2.294286
P 0.733492 8.085171 2.734901
P 5.616638 7.940618 7.380249
P 2.147755 5.437675 7.814893
P 1.531735 12.024437 7.026283
P 2.780002 8.312941 8.036951
P 0.899488 1.726179 6.804225
P 6.459492 11.447344 3.367701
P 5.421832 1.353856 7.877640
P 4.412982 11.675114 7.820864
P 6.625488 5.088352 7.437026
P 4.578978 4.860582 2.134975
O 4.373170 8.278045 8.327041
O 0.431126 11.873771 8.034399
O 1.442139 2.795659 5.910471
O 2.289916 6.879069 8.558340
O 6.814408 8.775582 7.711378
O 6.927854 1.299753 2.137527
O 6.199690 11.361057 1.872538
O 1.389574 0.292307 6.282836
O 6.579502 7.539906 3.194835
O 2.533292 1.955899 0.989355
O 5.318430 8.754505 1.274061
O 5.069064 6.294454 1.613586
O 2.040549 4.419019 8.897865
O 6.212782 4.630862 6.075318
O 6.454377 4.149067 8.600225
O 5.211983 13.010409 7.421827
O 0.544572 4.397941 2.460549
O 4.110616 7.886514 3.365149
O 1.159290 1.812466 8.299388
O 2.900012 12.220380 7.864085
O 2.774887 2.437695 3.514262
O 2.210019 5.168250 4.258595
O 5.720039 2.167743 4.228615
O 5.121629 3.791103 1.241221
O 0.904603 9.024456 1.571701
O 3.134918 10.984703 2.625414
O 2.520200 8.399228 6.541788
O 4.825688 11.217624 9.182571
O 0.693680 11.482241 3.241078
O 5.148961 8.005274 5.913331
O 1.146198 8.542661 4.096608
O 5.826487 6.423647 7.836063
O 1.532493 6.749876 2.335864
O 3.248364 5.287009 6.806777
O 5.916841 10.377865 4.261455
O 0.779478 5.633618 6.977091
O 1.638941 11.005781 5.943311
O 4.584093 10.735829 6.657664
O 2.147004 0.163115 2.750100
O 5.969406 12.881216 3.889090
O 2.985810 4.895479 1.844885
O 4.458968 0.953144 2.307841
O 1.469471 11.755012 0.827368
O 4.838780 4.774296 3.630138
O 5.889509 1.418512 9.344558
O 6.665300 1.691283 6.930848
O 4.224062 2.188820 7.546512
O 2.237351 9.382421 8.930705
