40

Li 6.463687 -0.433616 3.815287
Li 3.232420 3.981476 0.262404
Sn 2.512417 0.772742 1.753717
Sn 7.182382 2.775655 5.306377
Sn 3.231645 3.981453 3.345905
Sn 0.169640 2.091074 5.306563
Sn 6.463076 -0.432815 6.898845
Sn 2.342816 7.077652 5.306367
Sn 9.525401 1.457362 1.753637
Sn 7.351973 -3.529099 1.753763
P 3.736666 1.510447 5.336256
P 9.529967 -1.529035 1.783592
P 5.957958 2.038122 1.783418
P 5.793253 5.356546 5.336222
P 0.164909 5.077486 5.336189
P 3.901507 -1.808079 1.783452
O 4.922524 3.196409 1.680110
O 3.335437 -1.064759 3.017936
O 2.632855 1.684470 4.098683
O 6.359129 4.613281 6.570723
O 7.062089 1.863947 0.545874
O 4.943000 0.982644 1.859023
O 8.998237 -2.213668 3.017944
O 0.832366 5.699778 4.098656
O 8.862578 -2.151277 0.545980
O 1.610568 3.327637 1.680259
O 3.161920 5.420315 1.680081
O 5.706261 -2.026422 1.859251
O 8.740355 -0.255088 1.859249
O 0.696368 5.762204 6.570623
O 7.055593 1.979466 3.017921
O 8.084221 0.220841 5.233018
O 3.465028 -1.011776 0.545961
O 4.751750 2.565878 5.412016
O 6.532917 -1.871812 5.233040
O 0.954463 3.803602 5.411825
O 4.772303 0.352024 5.233117
O 6.229742 4.560263 4.098717
O 3.988450 5.575039 5.411880
O 2.639050 1.569126 6.570653
