36

Fe 4.830573 6.642167 7.049253
Fe 1.540408 2.429973 7.329967
Fe 5.134832 7.319177 12.468207
Fe 1.236149 1.752964 1.911003
P 1.773719 7.550814 12.408284
P 4.865671 2.672596 8.229891
P 5.611082 5.266511 9.676826
P 4.597261 1.521326 1.970936
P 1.505310 6.399545 6.149329
P 0.759899 3.805630 4.702394
O 4.719126 8.098185 5.873598
O 1.631048 0.622385 10.865121
O 0.724393 3.771288 8.505254
O 1.338976 5.399520 4.793338
O 0.845397 3.258196 3.279251
O 3.507193 2.942101 7.602240
O 4.894251 1.197288 8.516593
O 3.710000 0.926473 5.476956
O 4.739933 8.449755 3.514100
O 1.651855 0.973955 8.505622
O 3.230565 2.261723 2.121105
O 1.659494 3.102469 5.611048
O 5.646588 5.300853 5.873966
O 3.140416 6.810417 12.258116
O 5.525583 5.813945 11.099969
O 2.660980 8.145667 8.902264
O 0.724342 6.321621 12.105553
O 2.863788 6.130039 6.776980
O 5.646638 2.750520 2.273667
O 1.476730 7.874852 5.862627
O 1.494530 3.005889 11.223369
O 4.876451 6.066252 3.155851
O 5.032004 3.672620 9.585883
O 6.082815 2.990830 7.409843
O 0.288166 6.081311 6.969377
O 4.711487 5.969672 8.768172
