70

Ti 1.547937 11.535878 7.006851
Ti 0.432458 2.561010 6.048730
Ti 1.803496 7.048444 5.614055
Ti 3.412974 4.929682 6.614588
Ti 0.579303 9.167206 4.180658
Ti 3.274700 2.118762 6.769938
Ti 0.441029 11.978126 4.336008
Ti 2.050507 0.000000 5.336540
Ti 3.421545 9.609454 4.901865
Ti 2.306066 4.487434 3.943745
Ti 0.000000 0.000000 0.000000
Ti 5.080162 2.218159 4.363512
Ti 1.226159 4.830285 1.053187
Ti 3.854003 7.048444 3.310325
Ti 2.627844 11.878729 2.257139
Ti 6.481847 9.266604 5.567464
Ti 4.286460 4.487434 1.718785
Ti 5.401940 9.609454 2.676906
Ti 5.657499 0.000000 1.284110
Ti 7.266977 2.118762 2.284643
Ti 4.433306 11.978126 -0.149287
Ti 4.295032 9.167206 0.006063
Ti 7.128703 4.929682 2.439993
Ti 5.904510 7.048444 1.006595
Ti 6.160069 2.561010 -0.386200
Ti 7.275548 11.535878 0.571921
O 1.720481 5.894868 7.203081
O 0.211461 8.202021 5.906936
O 1.598933 1.133235 7.074964
O 0.356935 12.963654 6.008172
O 3.038172 12.814367 6.484651
O 0.760410 1.282521 4.528209
O 2.143882 3.524222 5.661583
O 1.710121 10.572666 5.289012
O 3.093593 8.330965 6.422386
O 0.815831 5.765923 4.465944
O 4.778832 3.410108 6.122876
O 4.747099 10.458552 6.095619
O 0.924830 3.638336 2.812551
O 0.893096 10.686781 2.785293
O 3.497068 5.915209 4.942423
O 2.255070 8.181679 3.875631
O 3.642541 1.153577 5.043659
O 2.133522 12.943312 3.747515
O 6.538979 1.395662 5.616536
O 3.933673 3.502964 3.378756
O 0.079670 3.545480 0.068431
O 2.684976 5.652782 2.306211
O 5.023030 8.444107 4.314440
O 3.774333 10.593924 3.241894
O 1.169027 12.701226 1.004114
O 7.628336 10.551408 6.552219
O 5.574484 1.153577 2.873136
O 4.065464 12.943312 1.576991
O 5.452936 5.915209 2.745019
O 4.210937 8.181679 1.678227
O 2.960907 3.638336 0.525032
O 2.929173 10.686781 0.497775
O 6.814910 3.410108 3.835357
O 6.783176 10.458552 3.808100
O 4.614413 5.765923 0.198264
O 6.892175 8.330965 2.154706
O 5.997884 3.524222 1.331638
O 5.564124 10.572666 0.959068
O 4.669834 1.282521 0.136000
O 6.947595 12.814367 2.092442
O 7.351071 1.133235 0.612478
O 6.109072 12.963654 -0.454314
O 7.496544 5.894868 0.713714
O 5.987525 8.202021 -0.582430
