24

Mn 3.534929 7.939154 5.249714
Mn 4.407494 5.891495 2.267288
Mn 0.887455 3.328937 3.697564
Mn 1.760020 1.281279 0.715138
P 1.293127 8.036366 0.970744
P 1.354347 5.869304 3.953170
P 3.940601 3.351128 2.011682
P 4.001821 1.184067 4.994108
O 2.671873 2.493984 1.998196
O 2.578402 7.146874 0.877400
O 1.333914 8.925976 5.626191
O 1.359785 9.162142 2.039252
O 3.935163 0.058291 3.925600
O 0.024399 7.179221 0.984230
O 2.716547 2.073559 5.087452
O 4.007259 4.476904 0.943174
O 1.313560 4.979694 2.643765
O 0.069073 6.758796 3.859826
O 2.623075 6.726449 3.966656
O 5.270549 2.041212 4.980621
O 3.961034 0.294457 0.338660
O 5.225876 2.461637 2.105026
O 3.981388 4.240739 3.321086
O 1.287689 4.743528 5.021678
