32

Li 0.996063 1.424084 5.699341
Li 1.922989 6.283630 5.699341
Li 0.098670 3.434305 0.000000
Li 2.820382 8.293841 0.000000
V 3.645303 4.344710 3.989037
V 1.820984 5.373216 1.710304
V 2.922307 9.202088 7.409450
V 1.820984 5.373216 9.688377
V 1.097988 0.515837 1.710110
V 3.645303 4.344710 7.409644
V 1.097988 0.515837 9.688571
V 2.922307 9.202088 3.989231
O 1.814796 4.919263 7.731110
O 2.904126 7.577659 7.147896
O 1.079807 2.140266 1.448556
O 1.079807 2.140266 9.950125
O 1.075144 9.507562 0.000000
O 1.844018 4.648307 0.000000
O 1.104092 0.060970 3.667583
O 2.899463 0.210364 5.699341
O 1.838862 6.999550 1.447724
O 0.014543 2.718376 7.147064
O 0.019699 5.069618 5.699341
O 1.814796 4.919263 3.667571
O 2.928411 9.656955 2.031758
O 0.014543 2.718376 4.251617
O 2.904126 7.577659 4.250785
O 3.639115 4.798663 2.031769
O 1.104092 0.060970 7.731098
O 1.838862 6.999550 9.950957
O 2.928411 9.656955 9.366923
O 3.639115 4.798663 9.366912
