72

Li 6.287481 6.373213 15.698778
Li 1.624883 0.520654 6.899281
Li 0.723151 1.525135 1.900216
Li 7.189214 5.368732 10.699714
Bi 7.733632 3.678857 15.663070
Bi 4.651576 7.112100 10.735422
Bi 3.260788 -0.218232 1.935925
Bi 0.178732 3.215010 6.863573
P 5.454254 1.018007 4.561501
P 2.762072 2.406532 4.399749
P 5.660901 4.650828 7.795703
P 5.892931 -0.446063 7.126942
P 2.019433 7.339931 15.926439
P 2.847818 4.681591 8.799497
P 2.534947 1.927254 9.803291
P 0.270951 5.816517 1.672556
P 7.641413 1.077351 10.472053
P 2.251463 2.243040 16.595201
P 5.150292 4.487336 13.199246
P 5.064546 2.212277 0.000000
P 2.458111 5.875860 13.360998
P 5.377417 4.966614 1.003794
P 6.220068 1.685244 13.037494
P 1.692296 5.208623 4.237996
O 7.432614 1.891421 9.242746
O 1.546345 4.639009 8.045680
O 7.112037 -0.333759 10.574479
O 4.226603 5.656350 1.685772
O 2.814040 7.036261 17.155746
O 1.756853 1.835596 0.346260
O 2.763433 3.982402 4.198064
O 2.064011 1.493439 8.453237
O 4.051091 4.401433 7.769305
O 5.098324 -0.142394 8.356249
O 5.148932 2.911465 12.997561
O 4.929387 3.423059 1.030192
O 2.256986 1.746820 3.136211
O 0.533111 6.994806 15.824013
O 4.862559 0.944927 0.753818
O 6.599885 4.954379 2.059346
O 2.456370 6.482173 4.087314
O 1.312479 1.939488 10.858844
O 7.118612 1.876766 14.232958
O 5.876655 4.900557 14.462783
O 6.830681 1.609428 4.712184
O 2.982977 3.470809 9.829690
O 0.800328 7.227626 1.774982
O 5.455995 0.411695 12.886811
O 5.056135 0.202352 5.904111
O 5.798007 5.847628 6.740151
O 3.861273 2.492435 16.568802
O 2.760893 6.731028 12.165534
O 5.655378 5.147048 11.935709
O 0.821905 4.919054 2.895387
O 0.793753 5.017102 5.433461
O 5.151471 0.162840 3.366037
O 3.685761 1.237518 10.485270
O 3.049805 5.948941 9.553315
O 2.035709 1.993310 5.663286
O 6.366019 2.254858 16.845177
O 5.848353 5.400429 17.252734
O 2.856229 6.691516 14.703608
O 2.114358 1.046239 15.539648
O 0.479750 5.002446 0.443248
O 3.562526 4.678635 13.400930
O 1.697265 3.452594 15.913222
O 4.349838 2.215233 4.601433
O 7.379253 -0.100939 7.024516
O 6.155511 5.058271 9.145758
O 7.090460 1.974813 11.694884
O 1.081684 5.284439 13.511681
O 6.215099 3.441273 7.113725
