88

Li 5.482920 11.990775 9.958263
Li 5.153592 5.077235 2.352103
Li 0.164664 8.749846 8.195491
Li 10.471849 1.836305 4.114876
Mo 5.299100 13.816420 6.164620
Mo 10.617356 6.924201 7.927393
Mo 5.337413 6.902880 6.145746
Mo 0.019156 0.010661 4.382974
P 7.808551 8.115736 4.139958
P 2.509845 10.353898 9.482477
P 2.721245 5.866291 8.079052
P 8.084643 11.866953 6.867119
P 2.808412 3.473183 1.065117
P 7.896887 4.931013 7.238083
P 2.766387 8.873667 5.104346
P 7.915267 12.779831 4.231315
P 8.057881 8.896067 6.835056
P 8.039502 1.047249 9.841824
P 2.490295 12.624885 2.377185
P 2.597011 7.960789 2.468542
P 2.739625 11.844554 5.072284
P 2.578631 1.982527 5.475310
P 7.870126 1.960141 7.206021
P 8.126668 3.440357 2.827890
P 8.146218 5.711345 9.933190
P 7.828101 10.386723 11.245250
P 2.551870 4.953399 5.443248
P 2.827961 1.202196 8.170418
O 3.309881 4.756488 8.957662
O 1.209499 7.217031 2.907426
O 1.273722 13.557535 2.858329
O 6.819781 12.750158 7.225275
O 9.427013 0.303491 9.402941
O 8.628137 2.157052 10.720434
O 7.661756 4.844428 8.683277
O 9.362790 6.643995 9.452037
O 6.820642 7.987960 7.193760
O 8.344695 3.445211 6.864808
O 2.343500 2.069098 6.920504
O 4.044534 0.269545 7.689265
O 4.150474 12.124994 5.727563
O 2.008376 9.070592 1.589932
O 1.511916 6.711471 8.489331
O 2.255334 4.929617 6.879009
O 1.167783 1.702086 4.820031
O 9.134988 1.076922 6.847864
O 4.176288 8.601453 5.763177
O 9.402411 10.139274 11.290410
O 3.026439 3.468330 5.102035
O 1.501525 7.990462 5.462503
O 7.573590 1.983923 8.641781
O 9.494545 12.139167 7.525949
O 6.460224 1.687913 6.547190
O 8.946030 4.617554 10.735986
O 3.062922 8.897464 3.668585
O 1.502386 12.752661 5.430987
O 6.828928 6.301609 10.480281
O 2.291817 10.358751 5.445559
O 9.124596 13.625011 3.821035
O 9.468730 8.615626 7.490336
O 7.008738 9.209527 3.337153
O 1.141968 5.225627 4.784417
O 7.012621 10.600960 10.094951
O 3.623892 3.687420 2.215415
O 9.134126 5.839121 6.879379
O 3.816732 5.836618 5.085091
O 8.293012 8.982638 5.389862
O 3.627774 2.295987 8.973214
O 3.815870 1.074419 5.116607
O 6.486039 5.211454 6.582804
O 7.326632 11.670028 3.352705
O 8.942148 3.226121 3.978188
O 1.510672 0.611931 8.717509
O 8.381178 11.843157 5.431358
O 7.610074 10.381870 7.208332
O 3.806340 7.115609 2.058263
O 1.694365 10.139661 8.332179
O 2.974756 11.757982 3.627090
O 6.552358 3.687807 2.782729
O 9.125841 7.525471 3.592858
O 4.108757 6.610050 7.640168
O 6.527755 13.523590 4.670199
O 3.807584 13.215149 1.830085
O 6.830173 0.202069 10.252104
O 4.084155 10.601347 9.527637
O 1.690482 11.531094 1.574380
O 1.234101 3.225733 1.019957
O 6.591979 7.183085 4.621102
