19

Ni 4.161943 2.980097 5.506381
Ni 1.161584 2.253502 4.739243
Ni 5.326567 5.222258 3.969576
Ni 2.317765 4.552043 3.232465
Ni 3.535289 1.864240 3.136370
Ni 4.752813 4.053601 1.636943
Ni 0.016846 4.870796 -1.347466
Ni 1.744011 3.383386 0.899832
Ni 2.908635 0.748384 0.766360
O 2.082185 3.933551 5.268537
O 4.988393 4.672093 5.927015
O 3.232804 1.309484 5.099160
O 0.282717 0.518124 4.479140
O 4.250625 3.611726 3.564070
O 1.532300 2.937397 2.850604
O 5.538278 5.668252 2.018802
O 2.819953 4.993919 1.305338
O 3.837774 2.418997 1.173581
O 0.895713 1.729011 0.315970
