48

Li 18.392199 4.540170 3.893995
Li 8.869746 2.650128 4.005864
Sn 7.820467 6.034666 3.775251
Sn 1.730249 6.046853 1.310951
Sn 17.342920 1.155632 3.663382
Sn 11.252702 1.143444 1.199082
P 16.531473 3.411221 1.166423
P 7.866060 1.069312 1.301289
P 7.009020 3.779077 1.278292
P 14.263663 1.867946 -0.141107
P 11.159610 6.181729 3.744826
P 1.637157 1.008569 3.856695
P 12.003071 3.343654 3.619381
P 2.480618 3.846644 3.731250
P 4.741210 5.322352 -0.029238
P 17.388513 6.120985 1.189420
O 15.055188 2.817159 0.915747
O 9.061014 1.610023 2.147084
O 18.583467 5.580275 2.035215
O 5.532736 4.373139 1.027616
O 15.196083 1.107126 4.185849
O 13.485507 2.959189 4.161129
O 12.178284 4.916761 3.741163
O 16.204967 4.978555 1.231376
O 3.789822 6.162631 0.746227
O 17.696431 6.258356 4.896344
O 0.333229 1.477865 3.151319
O 17.442144 3.102592 0.033994
O 16.986589 3.024958 2.577121
O 1.485217 0.689521 0.141489
O 16.760831 0.185107 1.791596
O 7.919691 4.087706 0.145863
O 10.931643 2.770781 4.487592
O 2.655831 2.273536 3.853032
O 7.464137 4.165339 2.688990
O 8.173978 0.931942 5.008213
O 11.889658 3.010772 2.141905
O 11.873489 0.098895 2.978205
O 6.682515 2.211743 1.343245
O 11.007670 6.500777 0.029621
O 9.855682 5.712433 3.039450
O 1.409190 4.419516 4.599461
O 2.351036 7.091402 3.090074
O 2.367206 4.179526 2.253773
O 13.312275 1.027666 0.634358
O 7.238378 7.005190 1.903465
O 3.963054 4.231109 4.272998
O 5.673630 6.083171 4.297718
