12

O 3.069022 -1.495629 2.272866
O 4.117231 -0.177525 0.137879
O 4.137430 2.358859 0.153040
O 1.004280 3.921684 0.133135
O 6.017630 -0.285209 2.297290
O 6.044596 2.225181 2.360373
O 0.996644 1.250820 0.098900
O 3.047350 1.129583 2.289650
Sc 1.992071 2.536029 3.511020
Mo 5.045128 1.070124 1.202123
Mo 5.104773 -1.594061 1.243450
Mo 2.026569 -0.120405 1.193753
