72

Li 9.026011 3.353469 -3.348237
Li 1.217108 3.894090 3.263833
Fe 5.914397 2.574518 0.941324
Fe 4.328721 4.673040 -1.025728
Fe 3.856585 1.255256 5.300294
Fe 6.386533 5.992303 -5.384698
Fe 0.778078 6.694238 -3.283852
Fe 7.749575 -0.490708 -1.312639
Fe 2.493544 7.738267 1.228235
Fe 9.465041 0.553321 3.199448
P 7.806506 -0.166206 1.242392
P 9.572737 4.231211 -0.465172
P 0.670381 3.016348 0.380768
P 5.144432 1.406930 -1.154150
P 3.068326 4.261346 -3.366085
P 6.285925 -1.053312 5.263931
P 5.098686 5.840628 1.069746
P 3.957193 8.300871 -5.348335
P 10.215104 -2.633069 -1.675633
P 0.028015 9.880627 1.591229
P 7.174792 2.986212 3.281681
P 7.454225 6.679013 -3.024919
P 2.436613 7.413765 -1.326796
P 2.788894 0.568545 2.940515
O 6.023087 1.981815 4.402037
O 0.351380 6.639171 2.134963
O 3.348271 5.985641 1.384845
O 0.029971 6.619247 4.221932
O 7.523857 4.433648 -5.360864
O 9.546433 5.943461 -0.864753
O 7.064474 -0.771926 -2.683244
O 1.408101 4.721519 -3.132208
O 5.013218 2.614635 -0.596923
O 6.894848 1.261917 -1.469249
O 4.539740 -0.790602 5.468816
O 7.888369 3.466113 -0.229837
O 0.147122 8.647625 -3.552220
O 2.840591 1.031001 3.996170
O 6.446374 0.627560 1.245807
O 7.007830 -1.751540 2.160830
O 6.095260 7.237451 0.045245
O 5.703379 8.038161 -5.553220
O 5.841907 5.750459 2.080325
O 3.235289 8.999098 -2.245234
O 7.402528 6.216558 -4.080574
O 5.229901 4.632924 0.512519
O 7.248727 -0.316399 4.029431
O 3.762789 4.219939 -2.321478
O 10.213147 0.628312 -4.306336
O 3.708245 1.601048 1.794046
O 3.796745 6.619998 -1.330211
O 8.533972 7.500375 -6.483776
O 9.891739 0.608387 -2.219367
O 9.172539 0.462158 1.668296
O 6.480329 3.027620 2.237074
O 1.686212 7.611487 -0.157305
O 1.070580 6.785401 -1.752700
O 0.696686 1.304098 0.780349
O 8.556907 -0.363938 0.072906
O 9.299943 6.866919 -2.972412
O 2.354750 3.781445 0.145433
O 1.709146 -0.252816 6.399372
O 3.178645 8.019485 2.598840
O 4.220032 5.265743 -4.486441
O 4.147859 0.010107 -0.129649
O 4.401212 1.497100 -2.164729
O 10.095997 -1.400067 3.467816
O 2.994391 7.563957 -4.113835
O 0.943176 0.380639 2.888008
O 6.534874 5.646511 -1.878450
O 8.835018 2.526040 3.047804
O 2.719261 2.813910 5.276460
