92

Li 2.352579 3.326906 3.863502
Li 9.255162 13.088208 15.199202
Ca 9.106314 7.220512 7.375067
Ca 13.356276 18.705539 18.250487
Ca 7.691257 14.844927 17.725626
Ca 2.203732 7.041174 8.902208
Ca 4.821219 12.225701 15.321197
Ca 7.806572 11.128166 9.288893
Ca 5.638554 12.236459 11.270078
Ca 0.788675 4.901355 6.479730
Ca 6.193494 8.940812 6.804999
Ca 7.932889 7.205067 11.275939
Ca 12.910148 12.590661 18.606833
Ca 6.453693 5.158188 8.780190
Ca 11.723801 12.575046 13.710292
Ca 6.007566 8.237122 13.398662
Ca 12.541136 17.993567 15.786704
Ca 0.903990 7.024067 3.957823
Ca 1.030307 1.368526 6.798450
Ca 13.096076 14.733797 20.095908
Co 6.928425 9.797849 11.378142
Co 0.025843 0.036546 0.042441
P 9.975087 8.930291 13.893729
P 11.424353 11.112298 11.782420
P 2.586025 8.467637 10.956064
P 9.453459 13.734029 11.303430
P 3.072505 3.979592 8.979782
P 4.521771 10.698693 13.424986
P 10.666312 15.406541 13.737847
P 3.735581 5.282680 6.134723
P 3.763730 10.688716 8.709162
P 11.127059 11.108385 16.052962
P 4.224477 5.651303 11.388512
P 2.550877 8.467174 6.545254
P 10.638163 15.043983 17.470423
P 9.488607 8.923888 9.292486
O 5.178041 7.313052 10.936620
O 1.805992 9.553022 10.612270
O 2.000575 7.128735 11.680050
O 8.497272 7.840195 8.330903
O 4.621845 9.228362 13.576589
O 12.832038 12.455678 12.725797
O 8.726010 9.934141 15.218697
O 8.780181 9.792360 13.159674
O 12.080623 10.093876 16.919675
O 11.524427 11.978134 10.782983
O 10.805067 16.276019 16.600663
O 11.936621 9.833905 10.095504
O 2.102016 9.953049 12.714033
O 2.535429 3.489136 7.920521
O 8.903157 10.183881 8.735985
O 3.446059 11.448084 9.201108
O 1.562786 9.188098 7.889887
O 8.357674 13.533411 16.903448
O 2.397888 7.663567 5.804834
O 5.929456 11.480771 14.644919
O 8.138545 14.473434 10.690908
O 11.797603 14.888928 12.263844
O 12.226930 14.580347 18.045282
O 1.235963 7.118671 6.961454
O 10.348641 15.518608 14.548722
O 1.455092 4.768116 5.077010
O 4.791703 11.961619 8.138236
O 8.708574 7.849195 10.012973
O 12.261139 11.987831 15.489807
O 4.708099 5.773917 12.537479
O 12.067080 17.074176 13.474647
O 5.164498 9.993358 9.610219
O 11.694286 14.458238 14.261319
O 8.518490 12.229756 11.846644
O 5.034039 9.559739 11.669367
O 2.333004 5.093903 8.639100
O 5.467673 4.767830 9.932671
O 11.610682 12.439602 16.606445
O 5.324348 6.533431 5.864895
O 11.214818 15.859462 18.417430
O 1.823428 4.657867 10.465162
O 4.312236 6.098159 7.081730
O 3.902485 3.804322 6.600387
O 12.370255 10.229516 14.594853
O 1.594690 7.652995 9.861918
O 5.291630 11.968199 12.745152
O 4.895021 9.593680 7.519657
O 9.235586 7.856131 14.631317
O 1.877599 2.471898 9.413320
O 12.194212 9.979790 12.286070
O 9.300470 13.248628 10.406229
O 9.004598 10.053389 11.225815
O 1.615908 9.514749 5.831161
O 8.465368 14.630239 12.561698
O 9.438011 7.852577 13.123813
O 5.358557 4.918897 11.619524
