44

Li 5.271276 8.399170 3.126286
Li 7.109276 1.724878 3.864901
Li 1.144425 11.623708 0.795891
Li 2.982425 4.949415 1.534505
Cu 2.153597 2.019561 0.892627
Cu 1.973254 8.693854 1.437769
Cu 6.280447 4.654732 3.223022
Cu 6.100104 11.329025 3.768165
P 3.867833 2.250985 3.430302
P 4.385868 11.097600 1.230490
P 1.842044 0.345635 3.415080
P 6.411656 13.002951 1.245712
P 2.284806 7.019928 3.822486
P 7.994683 4.423307 0.853527
P 0.259018 8.925278 3.807264
P 5.968895 6.328658 0.838305
O 3.450121 0.685610 3.496381
O 2.504536 5.639711 3.331746
O 7.004247 3.788636 -0.194659
O 5.376304 10.462928 2.278676
O 1.249453 9.559950 4.855451
O 7.060529 9.055000 3.876612
O 2.710590 7.238791 0.414363
O 1.173057 1.479931 4.264965
O 1.622314 12.314003 3.905819
O 7.080644 11.868655 0.395827
O 5.543111 6.109794 4.246428
O 0.596602 9.539580 2.426379
O 4.803580 12.662975 1.164410
O 2.933679 10.967879 1.546216
O 3.530248 2.865287 -0.095983
O 2.953793 8.154224 2.972601
O 7.657099 3.809006 2.234413
O 1.416261 0.564498 1.916033
O 6.837440 12.784087 2.744759
O 2.877397 2.885657 2.382115
O 5.320022 2.380707 3.114575
O 5.299908 5.194362 1.688190
O 1.193171 4.293586 0.784180
O 5.749165 7.708875 1.329045
O 0.676729 7.359903 3.741184
O 4.723453 10.483298 4.756774
O 6.631386 1.034582 0.754972
O 7.576972 5.988683 0.919607
