46

Li 11.853279 3.819006 4.247029
Li 0.912028 5.671285 0.649902
Li 5.534408 5.802620 1.797924
Li 7.230899 3.950342 3.099007
Ti 12.577940 0.045202 -0.389325
Ti 6.259069 9.576424 2.478210
P 10.894416 5.029571 1.648130
P 3.099608 0.123003 1.294719
P 9.418479 9.498624 3.743824
P 5.133691 1.700170 -0.125963
P 7.410582 7.846475 -0.240151
P 4.575545 4.592056 4.515665
P 1.814312 4.618111 3.210476
P 11.452562 7.921456 2.323142
P 8.133183 5.003515 0.342941
P 1.091711 1.775152 2.627384
O 6.438538 8.277255 3.949470
O 3.656743 1.143338 0.183810
O 9.516295 5.574405 0.972833
O 8.225401 0.592837 3.104195
O 7.678414 6.320908 4.787631
O 4.980875 3.255622 0.073760
O 11.788865 8.251998 0.913257
O 1.906530 9.028790 0.655090
O 0.665466 1.541000 4.029581
O 5.518497 4.752362 3.403066
O 4.414742 5.689133 0.176933
O 10.733613 3.932494 2.626037
O 2.544407 1.103620 2.440676
O 0.874696 4.768132 4.322438
O 7.193567 4.853495 1.454903
O 12.434552 8.388942 3.426353
O 6.984336 8.080627 1.162046
O 5.469994 1.369629 3.780792
O 1.990899 5.718373 2.236214
O 10.586257 0.641926 4.363811
O 11.299746 6.366005 2.522865
O 4.267386 8.979701 1.914706
O 0.119667 1.344372 1.500365
O 11.837368 4.869265 0.535531
O 1.359543 3.300718 2.338526
O 8.309770 3.903253 4.685319
O 8.863278 8.518007 4.889781
O 3.197424 4.047222 3.840368
O 9.975614 8.478289 2.632914
O 6.115681 1.232684 0.977248
