52

Sn 9.424590 7.138318 2.167341
Sn 4.110950 10.746913 3.385956
Sn 1.202689 1.176574 0.609308
Sn 6.516329 4.785170 4.943990
P 2.985128 2.156875 3.318501
P 3.764448 7.640022 4.871019
P 8.298768 3.804868 2.234797
P 6.862831 1.678279 3.458927
P 0.834465 7.500386 4.931489
P 7.642151 8.118619 5.011445
P 9.078087 10.245209 0.682278
P 4.479175 4.423101 2.154840
P 1.549192 4.283465 2.094371
P 9.792814 1.538643 3.398457
P 2.328511 9.766612 0.541852
P 6.148104 10.384845 0.621808
O 0.093361 0.672354 2.588425
O 3.011920 1.515416 4.678381
O 2.999539 5.049573 2.063466
O 5.694680 9.986052 2.008761
O 0.381041 7.899179 3.544536
O 7.718348 7.150825 0.637124
O 3.908692 8.509626 3.632601
O 10.095309 11.226715 0.250465
O 8.325559 4.446328 0.874916
O 2.301720 10.408072 1.901732
O 1.404948 3.413861 0.855952
O 2.314101 6.873914 4.840115
O 7.615359 7.477159 3.651565
O 10.533918 6.634097 0.188223
O 8.313178 0.912171 3.489831
O 5.845609 0.696773 3.027113
O 2.404709 10.734406 4.916173
O 10.246238 1.937436 4.785410
O 7.627740 11.011317 0.713182
O 1.793906 3.228964 3.316762
O 4.256958 3.113258 3.093964
O 0.531970 5.264971 2.526184
O 5.220279 11.251134 5.365074
O 4.781670 6.658517 5.302833
O 4.932598 4.024308 0.767888
O 7.107545 2.732780 2.236535
O 1.056681 8.810229 0.317315
O 8.833373 9.190708 5.013184
O 9.222331 9.375605 1.920697
O 9.570598 2.848485 2.459333
O 2.908931 1.189082 2.139524
O 6.370320 9.075002 5.235982
O 5.407000 5.289390 2.964872
O 8.222570 4.772662 3.413773
O 3.519733 8.694524 0.540114
O 6.718587 2.547882 4.697345
