76

Li 0.595474 6.898799 3.037724
Li 5.675115 20.696397 0.903379
Sn 1.075042 15.048351 4.207476
Sn 5.272217 4.986921 2.500223
Sn 0.998372 18.784519 1.440880
Sn 1.075042 26.344444 4.207476
Sn 5.272217 8.810677 2.500223
Sn 4.870937 24.872682 3.949427
Sn 1.399652 11.075084 -0.008324
Sn 5.195547 1.250752 -0.266366
Sn 1.399652 2.722514 -0.008324
Sn 4.870937 16.520113 3.949427
Sn 0.998372 22.608275 1.440880
Sn 5.195547 12.546846 -0.266366
P 4.208625 16.703455 0.693607
P 1.840587 26.834894 0.496284
P 1.466735 18.517508 4.885257
P 4.208625 24.689340 0.693607
P 1.466735 22.875287 4.885257
P 2.061964 10.891741 3.247496
P 3.003813 6.898799 4.853128
P 3.266776 20.696397 -0.912025
P 4.803855 4.719910 -0.944154
P 2.061964 2.905857 3.247496
P 4.429996 13.037295 3.444822
P 4.803855 9.077688 -0.944154
P 4.429996 0.760303 3.444822
P 1.840587 14.557901 0.496284
O 0.653558 23.030040 6.200788
O 1.090249 14.567753 1.809339
O 5.205962 25.080888 1.699816
O 3.931026 26.964150 3.965677
O 3.066337 17.712529 1.230822
O 2.875191 12.277738 3.537354
O 0.653558 18.362754 6.200788
O 3.931026 14.428645 3.965677
O 2.133493 17.195257 4.347269
O 0.594558 19.244752 4.004634
O 1.182727 10.502842 4.466387
O 1.407591 6.898799 4.705728
O 4.137097 10.399940 -0.406166
O 5.676031 5.447154 -0.063531
O 5.354864 1.489202 4.351638
O 1.064627 11.283290 2.241287
O 3.335195 5.627268 -1.105683
O 2.339563 0.631047 -0.024574
O 0.594558 22.148043 4.004634
O 5.617031 9.232442 -2.259685
O 2.935395 21.967929 5.046786
O 4.016714 6.898799 3.631299
O 5.354864 12.308396 4.351638
O 5.180341 13.027444 2.131765
O 5.617031 4.565156 -2.259685
O 1.182727 3.294756 4.466387
O 3.395399 26.075336 0.403749
O 3.335195 8.170331 -1.105683
O 2.339563 13.166524 -0.024574
O 1.090249 26.825042 1.809339
O 0.915726 15.286801 -0.410535
O 5.087862 17.092354 -0.525284
O 2.253876 20.696397 0.309804
O 3.395399 15.317459 0.403749
O 5.676031 8.350472 -0.063531
O 5.205962 16.311907 1.699816
O 2.875191 1.519861 3.537354
O 4.137097 3.397659 -0.406166
O 5.180341 0.770154 2.131765
O 5.087862 24.300440 -0.525284
O 3.204252 9.882668 2.710281
O 3.204252 3.914931 2.710281
O 2.935395 19.424866 5.046786
O 4.862999 20.696397 -0.764625
O 1.064627 2.514309 2.241287
O 0.915726 26.105994 -0.410535
O 3.066337 23.680266 1.230822
O 2.133493 24.197538 4.347269
