72

Li 6.273508 3.905135 6.902879
Li 6.892153 2.445551 2.368057
Li 2.503600 8.821238 2.166765
Li 1.884954 10.280822 6.701587
Sb 6.541929 5.052271 4.106427
Sb 2.235178 7.674103 4.963218
Sb 2.153376 11.427958 0.428396
Sb 6.546090 11.297179 4.936807
Sb 2.157536 4.933992 8.667659
Sb 2.231018 1.429194 4.132837
Sb 6.623732 1.298416 8.641249
Sb 6.619572 7.792381 0.401985
P 5.416809 8.371853 3.573249
P 3.453801 8.161731 8.256832
P 4.843182 0.087880 2.363749
P 1.028256 2.008666 0.961573
P 3.933926 12.638494 6.705895
P 0.454628 6.463567 2.171073
P 7.748852 10.717707 8.108071
P 0.934753 10.940329 3.722010
P 7.842354 1.786044 5.347635
P 5.323307 4.564642 0.812812
P 8.322480 6.262807 6.898571
P 3.360298 4.354521 5.496395
O 2.737755 4.143916 6.919250
O 2.964582 5.708309 4.875224
O 1.396701 7.409258 2.947163
O 0.383753 7.133465 5.967427
O 5.812525 7.018064 4.194420
O 2.822709 8.890695 0.357825
O 4.004801 11.968596 1.432605
O 8.393355 5.592909 3.102217
O 8.388194 7.372371 1.223831
O 6.039352 8.582457 2.150394
O 7.353136 12.071496 8.729242
O 1.565845 10.211366 4.892647
O 5.734198 11.876043 3.219996
O 5.954398 3.835679 8.711819
O 1.415212 12.444488 3.591842
O 1.267397 10.307116 2.370551
O 1.345645 5.512857 1.314826
O 1.629646 3.067697 9.051378
O 2.758908 3.295490 4.516556
O 2.991853 11.692802 7.481985
O 2.973342 6.657572 8.126664
O 5.803766 6.068801 0.942980
O 0.491992 10.590896 8.023270
O 1.423972 0.654877 0.340402
O 0.630416 1.792570 5.229493
O 0.388914 5.354002 7.845814
O 3.121157 8.794945 6.905373
O 1.650798 2.219270 2.384428
O 4.772306 0.757778 7.637039
O 3.758138 4.570617 0.694671
O 3.999640 1.009184 3.310992
O 4.777467 11.717189 5.758653
O 7.361895 0.281885 5.477802
O 5.018969 8.155757 8.374973
O 7.431463 7.213517 7.754818
O 7.509711 2.419258 6.699093
O 7.147462 9.658677 0.018266
O 7.380406 5.317115 6.122481
O 8.146692 10.933803 3.840151
O 6.018199 9.430883 4.553088
O 5.655951 3.931429 2.164271
O 3.896562 8.511165 3.488448
O 5.785255 1.033571 1.587659
O 7.211263 2.515008 4.176997
O 4.880546 4.215209 5.581196
O 7.126309 10.507103 6.685217
O 8.285116 2.135478 1.046374
O 3.042909 0.850330 5.849648
