30

Mn 5.757052 -0.352537 -2.070283
Mn 6.070875 -0.192070 1.819952
Mn 2.154284 4.397847 4.539396
Mn 2.468107 4.558314 8.429631
P 7.534978 3.852866 0.565043
P 1.271297 2.752311 6.881577
P 6.953862 1.453466 -0.522229
P 0.690181 0.352911 5.794305
P 4.656147 4.483089 2.299502
P 3.569012 -0.277312 4.059846
O 3.649824 5.682663 7.224136
O 0.862104 6.339847 8.981996
O 3.598787 3.821712 1.743828
O 2.460597 3.239721 5.905663
O 6.822441 3.135835 -0.327486
O 6.502852 1.337148 -1.657990
O 0.404110 4.023030 3.882314
O 4.330061 4.202054 3.580619
O 0.915567 6.367185 5.023059
O 5.764562 0.966057 0.453685
O 1.722307 2.868629 8.017337
O 4.626372 0.384065 4.615520
O 7.363056 -2.134070 -2.622648
O 6.436960 3.644105 1.796238
O 4.575335 -1.476886 -0.864788
O 7.821049 0.182747 2.477034
O 7.309592 -2.161407 1.336289
O 3.895098 0.003723 2.778729
O 1.402719 1.069942 6.686834
O 1.788199 0.561672 4.563110
