36

Cu 4.617287 4.810454 2.494069
Cu 6.637333 5.704109 -1.923985
Cu 8.264309 1.730008 0.868963
Cu 2.035211 -0.352620 2.529875
Cu 3.965628 0.659457 -1.904989
Cu 0.314876 3.655506 -0.159493
P 2.483287 6.504185 -3.527432
P 6.934354 2.509221 -1.569312
P 4.989613 1.639471 2.694143
P 3.415690 5.476242 0.005905
P 7.704810 -1.687121 -0.743292
P 0.821680 2.089024 5.082459
O 6.153102 1.194068 1.780603
O 2.624649 6.780948 -0.074124
O 5.182706 0.828446 3.913730
O 5.156061 5.881818 -0.647984
O 2.981327 7.296949 -2.656351
O 8.735581 -2.117874 2.263613
O 3.338224 4.847293 1.310491
O 5.547483 1.319221 -1.105813
O 8.709732 -0.336805 -1.430404
O 3.265617 1.348046 2.478908
O 6.866791 -1.486090 0.446670
O 0.714039 5.845363 4.233598
O 8.745160 5.478589 -4.417341
O 0.750071 3.120862 3.930759
O 2.585447 1.996912 5.139500
O 8.736570 -0.245027 3.337044
O 7.950336 2.582842 -0.624189
O 3.547761 5.369982 -3.554574
O 6.244579 3.831070 -1.931166
O 8.044825 2.336410 -2.671093
O 6.412183 6.224004 -5.327921
O 2.691643 7.423075 2.567055
O 5.411236 3.153420 2.636990
O 2.526176 4.447236 -0.537074
