34

Mo 1.064905 2.440272 0.863428
Mo 6.345813 8.900249 1.010547
P 4.155820 8.766454 -3.278119
P 0.223930 0.941116 6.369415
P 3.254899 2.574067 5.152095
P 2.266613 5.894765 0.262817
P 2.307957 4.143826 3.329255
P 7.186789 10.399405 -4.495439
P 5.144106 5.445756 1.611159
P 5.102761 7.196695 -1.455279
O 3.573863 6.080888 -0.972713
O 6.356825 4.721740 1.976702
O 7.398098 10.803689 0.347080
O 1.538317 4.356804 0.269362
O 1.053893 6.618781 -0.102726
O 7.193740 9.424988 -5.567061
O 1.983701 3.001801 2.424537
O 2.975263 1.715637 0.263847
O 6.387209 6.479833 -1.934671
O 1.730603 1.343529 5.335100
O 5.872401 6.983717 1.604614
O 3.762340 8.069792 3.796754
O 5.680116 9.996992 -3.461124
O 3.648378 3.270729 -1.922778
O 0.012620 0.536832 1.526896
O 5.427017 8.338720 -0.550561
O 2.701466 3.628148 4.456312
O 3.836855 5.259633 2.846688
O 2.719630 6.621947 1.332616
O 1.023509 4.860688 3.808647
O 4.435456 9.624884 1.610129
O 0.216978 1.915533 7.441037
O 4.691088 4.718574 0.541360
O 4.709252 7.712373 -2.582336
