36

Mn 0.364448 3.778134 -0.058916
Mn 2.156879 -0.328003 2.634816
Mn 6.618740 5.761709 -1.716654
Mn 4.625024 4.841418 2.669763
Mn 4.097360 0.768065 -1.904018
Mn 8.243639 1.816508 1.025115
P 5.090407 1.687807 2.826032
P 0.783794 2.100494 5.278411
P 7.789381 -1.690258 -0.684330
P 2.469215 6.627257 -3.473136
P 6.983506 2.652459 -1.461182
P 3.451915 5.554593 0.211222
O 3.337699 1.358550 2.697928
O 7.787162 2.824074 -0.404497
O 8.288067 2.518698 -2.477969
O 3.588461 5.548805 -3.608887
O 2.527526 1.899245 5.162917
O 6.535359 6.123308 -5.137122
O 5.225113 5.763720 -0.313576
O 2.831152 7.171949 -2.410166
O 8.596875 -1.992322 2.525858
O 2.528534 4.636461 -0.434241
O 7.022345 -1.582094 0.562161
O 0.231847 0.138285 2.190486
O 3.176959 4.937581 1.542075
O 2.879329 6.972763 0.070778
O 8.481906 -0.250367 -1.347753
O 6.243468 3.922657 -1.934866
O 6.184087 1.084769 1.976851
O 0.731514 5.979235 4.221639
O 0.645259 3.206960 4.189363
O 5.713089 1.384677 -1.088236
O 5.535530 3.233019 2.600914
O 2.788122 -0.651272 -0.783935
O 5.378875 1.053743 4.086852
O 0.221872 2.579064 -1.077462
