76

Li 2.531692 5.396274 5.929091
Li 7.802662 4.091746 15.518633
Li 2.532261 3.423309 13.359813
Li 7.951315 3.899027 9.042741
Nb 6.342418 1.156682 5.740573
Nb 1.068739 0.517251 3.539219
Nb 4.185258 8.079318 9.226616
Nb 9.460371 8.716180 11.426431
P 3.498788 5.004521 8.984444
P 1.776484 1.054202 9.114569
P 4.619872 3.350522 11.649327
P 0.597510 5.264624 1.078310
P 3.937883 2.123326 2.885633
P 8.751319 8.190416 5.828151
P 5.896229 5.904800 3.299986
P 8.801492 5.620750 11.136497
P 1.307922 6.489530 9.995997
P 6.580874 7.110512 12.117372
P 9.211699 2.745769 5.012044
P 9.920878 3.982804 13.865095
P 7.022773 4.258419 5.975701
P 7.070806 1.750650 11.293433
P 1.723548 3.646662 3.819442
P 3.448583 7.498153 3.657759
O 5.408173 1.689161 3.815984
O 3.302208 4.709304 7.687977
O 2.015097 5.339737 9.389365
O 2.318496 7.662191 9.733334
O 5.176117 7.638595 11.085871
O 6.031787 8.575476 8.658173
O 6.207788 4.756138 2.751151
O 4.464134 0.697922 6.244358
O 8.654347 5.194776 9.902426
O 10.426782 8.263579 13.286622
O 8.522678 3.914216 5.587489
O 1.335143 6.570377 0.664250
O 9.479074 4.370014 12.299686
O 4.262515 4.438644 12.258410
O 1.037659 2.187756 9.758360
O 9.134569 2.694086 14.263532
O 0.891378 4.136601 0.496767
O 2.971345 0.930128 3.137881
O 4.223074 6.350482 3.067494
O 9.730444 6.801971 11.277786
O 1.156887 5.987105 11.352642
O 2.030163 7.930096 2.650526
O 6.293289 2.895220 11.885897
O 7.598755 8.282698 11.911948
O 8.469111 1.298401 12.309416
O 9.715063 1.439335 8.294034
O 4.461804 6.150989 9.185986
O 3.307891 6.907469 5.010388
O 7.218499 4.565509 7.264107
O 6.344875 5.565928 4.878079
O 4.201873 3.697943 10.069183
O 6.623773 7.203052 2.861315
O 3.947382 2.638247 1.481853
O 0.155168 1.058142 1.615264
O 9.581655 5.044790 14.514624
O 6.077701 3.101418 5.771796
O 6.430145 6.555176 13.466279
O 7.241630 2.357854 9.942899
O 8.249706 1.555543 5.316253
O 3.258203 3.252172 3.512942
O 1.870578 4.088749 5.041389
O 7.281640 6.004945 11.456839
O 3.202316 0.613536 10.129381
O 1.849091 1.581992 7.742341
O 9.477577 7.048160 5.189164
O 1.071997 4.896792 2.642317
O 8.718130 7.682007 7.208272
O 9.219828 3.215894 3.603841
O 0.813963 2.453014 3.675474
O 3.849988 2.063707 12.076990
O 7.302788 8.612334 4.832887
O 0.786731 7.824233 6.601910
