68

Sb 0.135339 6.388398 1.815971
Sb 5.100196 1.996593 1.807102
Sb 5.370873 6.787016 5.439045
Sb 10.335730 2.395211 5.430175
P 8.028807 4.419429 0.443408
P 7.212587 5.390720 7.946293
P 8.494016 0.998916 2.922926
P 2.442262 4.364180 6.802738
P 3.258481 3.392889 -0.700147
P 8.841540 7.914190 5.084143
P 2.793273 8.755984 6.805696
P 5.599865 7.407042 2.069732
P 1.977053 7.784693 4.323220
P 1.629529 0.869419 2.162003
P 3.606006 5.261224 1.461070
P 4.871204 1.376567 5.176414
P 6.865063 3.522385 5.785076
P 0.364330 5.768372 8.432020
P 10.106738 3.015237 -1.185874
P 7.677796 0.027624 0.440451
O 1.778679 2.913778 9.380147
O 4.447377 2.544936 -0.240640
O 9.682911 1.846868 3.382433
O 0.751603 6.353711 9.718166
O 0.418707 1.945561 2.424722
O 4.483932 1.961907 3.890268
O 0.788157 6.936741 3.863713
O 9.136510 5.482606 0.624484
O 3.486531 1.209275 6.002522
O 9.719466 2.429898 -2.472020
O 5.654241 2.446244 6.047795
O 1.646701 8.222521 5.775307
O 7.014213 1.478027 3.017859
O 3.900976 7.692808 6.986772
O 1.901054 0.438188 3.615328
O 2.374503 6.037115 1.971682
O 5.722261 0.097885 5.220378
O 3.219906 4.895184 5.674394
O 7.251163 3.888425 1.571752
O 4.748808 8.685724 2.025768
O 9.359073 0.281936 5.887760
O 7.136588 3.953617 7.238401
O 1.111996 8.501673 1.358386
O 5.987137 6.821702 3.355878
O 10.052362 6.838048 4.821424
O 8.824367 0.561088 1.470839
O 3.334480 4.829992 0.007745
O 8.570015 8.345421 3.630818
O 6.882236 4.952893 -0.586981
O 8.455440 8.280229 -0.687894
O 1.749004 5.601079 7.605912
O 2.015628 0.503380 7.934040
O 6.347530 4.673741 4.981459
O 8.722065 3.182530 -0.359766
O 4.816828 6.337365 1.198351
O 6.023692 6.238672 7.486786
O 1.334559 3.301003 6.621662
O 8.692390 5.869831 -2.134001
O 6.984538 7.574334 1.243624
O 3.588833 3.830716 7.833127
O 0.486727 4.293920 1.597305
O 3.456856 7.305582 4.228287
O 4.123538 4.109868 2.264687
O 9.984342 4.489689 5.648841
O 2.861031 1.645310 1.651391
O 6.570093 1.090801 0.259374
O 7.610038 7.138298 5.594756
O 8.096565 2.746494 5.274464
