35

Bi 4.496080 6.616330 -3.091499
Bi 7.495349 1.804119 2.650457
Bi 0.264089 2.898882 2.300555
Bi 4.308554 6.734388 0.490461
Bi 1.492114 0.866432 -0.003806
P 1.217274 5.804725 2.947440
P 6.776162 5.135027 -5.067650
P 7.883812 -1.689134 2.393610
P 3.412104 0.884697 2.378698
P 2.169852 4.446604 -0.692615
P 5.642175 1.088532 -1.594629
O 0.570369 5.064556 -0.590946
O 2.509699 6.746921 -4.028205
O 3.174595 -0.433529 3.356905
O 3.470504 5.104289 -0.167416
O 1.453362 4.320502 3.243070
O 5.979298 -0.115752 -0.666989
O 7.664177 5.150190 -1.335135
O 8.387274 -2.154102 -1.227495
O 8.549795 2.801291 0.637814
O 6.591007 -1.018417 3.046860
O 7.726034 -1.234474 1.100132
O 6.086351 5.188262 1.187209
O 5.900182 0.688085 -2.767041
O 0.596496 1.852683 5.532601
O 7.335761 3.780513 -4.561139
O 3.869384 1.409705 -1.327527
O 3.126911 0.448893 1.279803
O 1.718699 2.943004 0.105322
O 5.454632 5.351351 -4.094486
O 2.164658 1.774647 2.736863
O 6.820543 2.369341 -1.697176
O 1.498621 6.384399 1.610724
O 5.169538 1.680557 2.066282
O 2.943611 4.560881 -1.969727
