100

Li 0.000000 8.460963 6.553838
Li 5.112657 2.804180 2.172114
Li 0.000000 2.852602 2.209621
Li 5.112657 8.509396 6.591365
O 0.055350 4.024846 9.255640
O 1.945519 5.054222 5.094694
O 3.167137 10.711005 -1.598495
O 8.279794 6.259343 3.668777
O 9.507435 3.664871 6.738594
O 5.830545 9.321665 0.045392
O 0.717889 7.648683 2.024889
O 4.394778 1.991900 8.718078
O 0.156028 1.314795 9.519251
O 5.268685 4.341999 5.937417
O 10.069285 9.998782 -0.755771
O 4.956639 6.971566 2.826064
O 3.337972 0.018136 7.345836
O 8.450628 5.638647 8.110824
O 6.887342 7.507908 -1.516174
O 1.774685 9.462440 3.586455
O 6.887342 11.295430 1.417635
O 1.774685 5.674918 0.652647
O 3.337972 3.805657 10.279644
O 8.450628 1.851126 5.177015
O 4.222441 0.028216 3.093841
O 9.335098 5.628567 1.287883
O 6.002872 3.166395 -0.619300
O 0.890216 2.490387 5.001035
O 1.704550 0.280780 2.724821
O 0.890216 5.685010 7.475574
O 4.222441 8.147170 9.382759
O 9.335098 8.823190 3.762433
O 1.665601 7.618351 5.791488
O 6.778248 9.351997 7.353706
O 8.559722 7.506324 5.924051
O 3.447066 9.464024 7.221166
O 8.559722 3.695225 2.971969
O 3.447066 1.961569 1.409764
O 1.665601 3.807241 2.839419
O 6.778248 1.849542 1.542316
O 0.055350 1.018458 6.926896
O 5.168006 4.638324 8.529774
O 10.169974 7.288708 -0.492178
O 5.057307 9.681629 2.562451
O 10.169974 10.295107 1.836585
O 5.057307 6.675230 0.233710
O 7.058176 0.602560 10.361966
O 5.168006 1.631925 6.201011
O 5.979446 2.820766 3.943327
O 0.866790 2.836005 0.438411
O 4.245857 4.617032 1.817969
O 9.358524 1.039751 2.563766
O 4.245857 8.492799 4.820133
O 9.358524 8.477549 8.325073
O 5.979446 6.696545 6.945499
O 0.866790 10.273804 6.199707
O 6.817206 8.498909 4.075923
O 1.704550 8.471428 9.069274
O 3.408117 5.937574 7.106554
O 8.520764 11.032774 6.038662
O 3.408117 2.814645 4.687539
O 8.520764 2.842126 -0.305801
O 6.817206 5.375991 1.656916
O 6.002872 11.285338 5.669621
Na 7.651500 10.361122 -1.184508
Na 2.538843 6.609227 3.254790
Na 2.573824 0.952444 9.947979
Na 7.686470 4.704339 5.508681
Na 7.668985 11.021121 3.572033
Na 2.556328 5.949227 9.573173
Na 2.556328 0.292444 5.191438
Na 7.668985 5.364338 -0.809702
Si 10.092129 0.218917 8.328990
Si 8.252349 7.752440 4.407215
Si 7.085621 10.850162 6.806706
Si 1.972974 6.120198 6.338497
Si 7.085621 2.095646 0.025482
Si 1.972974 3.561137 4.356253
Si 3.139693 0.463415 1.956773
Si 8.252349 5.193368 2.424973
Si 0.133185 8.554153 -1.533394
Si 5.245841 8.416207 3.603663
Si 3.139693 9.217920 8.737999
Si 4.979472 5.437865 7.127669
Si 10.092129 2.759413 10.296854
Si 4.979472 2.897370 5.159806
Si 9.797619 4.787663 7.901638
Si 5.245841 5.875700 1.635801
Si 0.427684 6.525902 0.861844
Si 5.540351 10.444446 1.208449
Si 9.797619 2.242428 5.930103
Si 4.684962 3.414355 9.526557
Si 5.540351 7.899222 -0.763089
Si 0.427684 9.071138 2.833368
Si 4.684962 0.869119 7.555021
Si 0.133185 11.094659 0.434478
Fe 7.668985 1.850311 3.348147
Fe 2.556328 3.806472 1.033588
Fe 2.556328 9.463254 5.415324
Fe 7.668985 7.507094 7.729882
