24

Li 5.031831 1.533850 0.000000
Li 0.000000 0.000000 3.102267
Cr 0.000000 0.000000 0.000000
Cr 1.447255 2.091272 4.735523
Cr 5.031831 1.533850 3.102267
Cr 3.584576 4.075235 1.633257
Cr 6.479087 3.625122 4.571277
Cr 8.616408 5.609084 1.469010
O 0.275171 1.103801 4.744284
O 0.275171 3.443279 4.744284
O 2.650437 1.904170 3.398682
O 2.522165 1.924117 6.063455
O 2.381395 4.262336 0.296415
O 2.509666 4.242389 2.961188
O 4.756661 2.723228 1.642017
O 5.307002 2.637651 4.562516
O 4.756661 5.062705 1.642017
O 5.307002 4.977129 4.562516
O 7.553997 3.457967 3.243345
O 7.682268 3.438020 5.908118
O 7.541498 5.776239 0.141079
O 7.413226 5.796186 2.805851
O 9.788492 4.257077 1.460249
O 9.788492 6.596555 1.460249
