42

Cu 5.647829 1.098787 6.098195
Cu 1.348501 5.355474 3.952229
Cu 5.647829 3.157900 1.670170
Cu 1.348501 7.414587 -0.475796
Cu 0.000000 0.000000 4.428025
Cu 0.000000 4.256687 0.000000
P 2.766272 4.356149 1.326767
P 6.389021 6.203670 3.249962
P 2.766272 8.413913 5.754792
P 0.607309 1.946983 6.800462
P 4.230058 4.157225 4.295632
P 6.389021 6.566391 -1.178063
P 0.607309 2.309704 2.372437
P 4.230058 0.099462 -0.132393
O 4.998990 0.577786 0.939728
O 4.377464 1.103333 -1.252480
O 0.010872 7.600059 1.043788
O 6.202883 7.593836 2.747323
O 6.878344 1.933762 2.344072
O 0.793440 0.919538 2.875080
O 4.998990 3.678901 5.367754
O 6.985458 3.343372 0.150586
O 0.117986 6.190449 7.706352
O 2.618866 5.360020 2.446854
O 6.985458 0.913315 4.578611
O 4.359812 0.129522 5.254142
O 6.878344 2.322925 -2.083953
O 4.844875 7.165733 -0.625843
O 4.844875 5.604329 3.802183
O 2.636518 4.386210 4.796282
O 0.793440 3.337149 7.303105
O 0.010872 5.170002 5.471813
O 2.618866 7.410041 6.874879
O 4.359812 4.127165 0.826117
O 6.202883 5.176225 -1.680702
O 2.636518 8.383852 0.368257
O 0.117986 6.579612 3.278327
O 1.997340 7.935589 4.682671
O 2.151455 1.347642 6.248242
O 4.377464 3.153354 3.175545
O 1.997340 4.834473 0.254646
O 2.151455 2.909046 1.820217
