24

Li 4.545361 0.933408 0.258628
Li 7.228437 4.826437 1.806207
Nb 0.033493 0.068774 2.592236
Nb 3.891107 3.961803 -0.173777
P 5.512468 2.426190 2.556682
P 6.261329 6.319219 4.698694
P 2.285074 5.372123 2.316260
P 1.639525 1.479094 0.102199
O 3.161296 5.333582 1.025241
O 5.141421 7.285609 4.599936
O 2.132258 2.942912 5.023581
O 5.751853 4.865422 -0.135833
O 7.287415 6.659330 0.694793
O 2.752580 0.508056 0.180633
O 1.172019 4.401085 2.237825
O 0.763303 1.440553 1.393218
O 4.486382 2.766301 1.370042
O 1.792341 6.835941 2.585419
O 6.021944 0.972401 2.200667
O 4.680610 2.413896 3.870404
O 7.093187 6.306925 3.384972
O 0.577811 1.100435 4.151389
O 6.632376 3.392580 2.655440
O 3.346788 4.993464 3.457611
