76

Li 9.466720 8.500398 3.373785
Li 0.009486 1.793781 5.576235
Li 4.747588 3.353308 5.427292
Li 9.448478 1.825765 8.001640
Li 4.728617 6.940871 3.522728
Li 0.027727 8.468414 0.948380
Li 4.765830 6.972855 0.799437
Li 4.710375 3.321324 8.150583
V 9.313186 8.272608 6.614592
V 4.901122 3.125519 2.186485
V 4.575084 7.168661 6.763535
V 0.163019 2.021571 2.335428
P 6.935938 0.267288 2.002584
P 6.678820 9.135230 8.580583
P 2.797385 1.158950 0.369437
P 7.278370 5.414378 6.798493
P 6.600509 1.057233 6.552935
P 2.827245 1.080467 4.358887
P 2.197835 4.879801 2.151527
P 1.862406 4.089857 6.701878
P 1.940717 6.306039 8.729526
P 7.535488 3.988140 0.220495
P 6.648961 9.213713 4.591133
P 7.613799 6.204323 2.248142
P 1.910858 6.227556 4.740076
P 2.875697 9.236947 2.397085
P 2.540267 10.026891 6.947436
P 7.565348 4.066623 4.209944
O 1.344910 1.266308 4.102579
O 3.269575 9.910443 3.814976
O 6.206630 0.383736 5.135045
O 6.041204 3.847213 0.374900
O 8.173104 8.994302 8.426177
O 1.033854 10.077600 6.944139
O 1.636067 5.998140 3.181592
O 3.690679 2.375948 0.430932
O 6.272784 1.571931 2.232886
O 3.786161 2.161500 3.929826
O 8.428782 2.771142 0.281989
O 6.321169 9.928293 0.667212
O 8.131295 9.027872 4.847442
O 1.534681 3.575158 2.381829
O 1.303101 1.299877 0.523843
O 5.785527 7.918231 8.519088
O 7.840139 4.296039 5.768428
O 1.047424 7.523038 8.668031
O 6.133493 6.399160 2.150325
O 6.374170 9.443129 3.032649
O 6.087685 10.148074 7.498849
O 3.704249 4.930510 2.154824
O 7.941525 6.719021 6.568191
O 3.435001 6.446967 8.575120
O 0.951942 7.308589 5.169137
O 5.771957 5.363669 6.795196
O 8.126623 5.000984 1.302228
O 3.780456 8.060425 2.184777
O 8.518559 7.380844 2.035834
O 3.342713 3.895019 6.799695
O 3.393192 6.413397 4.996385
O 5.695749 2.233755 6.765243
O 1.395390 9.042109 2.299268
O 3.102036 0.851051 5.917371
O 1.583066 5.512976 0.816155
O 8.524264 2.985590 3.780883
O 1.349582 5.293195 7.647792
O 3.203422 8.722248 6.717134
O 7.893139 4.781204 8.133866
O 0.957646 2.913335 6.914186
O 8.007678 5.530826 3.666033
O 3.155036 0.365886 8.282809
O 3.388521 0.146105 1.451171
O 8.442351 0.216579 2.005881
O 1.468528 4.763354 5.283987
O 6.083013 3.880782 3.953636
O 8.080815 1.252071 6.650752
O 5.690044 8.132680 5.020194
