40

Bi 3.621127 6.936418 9.131409
Bi 1.001280 6.072081 2.858929
Bi 4.238416 2.600252 9.686030
Bi 1.618568 1.735915 3.413550
P 1.416075 0.331829 10.405488
P 4.266830 1.845360 6.054701
P 0.972865 6.826973 6.490259
P 1.646983 2.490807 12.199184
P 1.203773 4.667996 8.283955
P 4.035922 4.004337 4.261005
P 3.592712 6.181526 0.345775
P 3.823620 8.340503 2.139471
O 5.095462 3.253651 3.485397
O 0.144233 5.418682 9.059563
O 3.957903 1.630069 7.516714
O 3.312483 1.105575 5.092181
O 3.093726 2.867039 11.857484
O 2.582813 3.759647 3.724235
O 1.435063 0.890380 11.929936
O 0.692635 3.230591 11.236665
O 2.656882 4.912686 8.820725
O 3.530313 1.162448 2.091765
O 3.804632 7.781953 0.615024
O 4.054911 3.445787 5.785452
O 0.910460 3.173718 8.236249
O 4.547060 5.441741 1.308295
O 1.184784 5.226546 6.759508
O 0.473878 1.469128 5.585005
O 4.765817 7.203205 6.959955
O 1.927212 7.566758 7.452779
O 5.202661 0.576519 9.996715
O 1.709382 7.509885 10.453195
O 2.145970 5.805294 0.687475
O 3.901639 5.966235 11.300726
O 1.338056 2.706097 1.244234
O 4.329230 5.498615 4.308711
O 1.281792 7.042264 5.028246
O 2.475614 1.082515 9.629881
O 0.037034 8.095813 2.548245
O 2.764081 7.589818 2.915079
