52

Li 3.566570 10.821562 6.194255
Li 3.826634 2.044951 3.130168
Li 1.337012 0.988826 1.807555
Li 1.072187 15.566479 3.393691
Li 3.403950 14.083109 1.848126
Li 1.392214 6.789868 6.389308
Li 3.989255 5.306497 0.801438
Li 1.127390 9.765437 1.300586
Fe 0.956996 15.310852 -0.051586
Fe 1.507405 6.534240 3.159727
Fe 3.938927 2.267367 6.180657
Fe 3.454278 11.043997 3.143766
P 3.564047 16.921342 1.187966
P 0.844945 12.535476 1.789392
P 3.284968 13.787881 4.911255
P 4.108236 5.011270 4.413168
P 1.081793 9.403297 4.743542
P 3.829157 8.144731 1.461599
P 1.382608 0.626685 5.039458
P 1.619457 3.758865 1.318749
O 2.054300 16.487304 1.285206
O 3.168722 12.233456 4.790322
O 1.786183 9.773055 6.055349
O 4.784320 14.207895 4.925798
O 0.678218 0.996444 3.727651
O 4.224482 3.456844 4.534101
O 0.053734 12.217447 3.104130
O 4.550917 9.932579 4.393387
O 4.741173 5.645766 5.640685
O 2.144355 2.823050 2.401054
O 2.652031 14.422378 3.683738
O 2.842288 1.155968 4.931036
O 4.817614 5.418083 3.073217
O 3.121490 7.581413 0.245961
O 3.802542 9.708249 1.507028
O 4.256130 16.367591 -0.091297
O 3.590662 0.931637 1.142537
O 0.320047 11.599661 0.707087
O 0.553958 14.051461 1.541441
O 0.410101 7.710692 1.822935
O 1.787416 10.001458 3.478225
O 1.382761 16.629906 5.126744
O 1.910443 5.274849 1.566706
O 3.137075 7.590979 2.740862
O 2.575590 14.194695 6.251206
O 0.092100 3.507871 1.196263
O 0.676986 1.224846 6.304775
O 4.271715 16.358024 2.403604
O 2.410668 3.440835 0.004011
O 2.372302 12.284483 1.911878
O 1.081641 7.853295 4.656255
O 2.608884 5.431283 4.398625
