40

Li 0.055435 0.055568 1.572425
Li 8.839790 8.861051 4.723604
Cr 5.461037 0.554983 3.851203
Cr 6.521517 6.537201 4.721913
Cr 8.353390 3.454293 0.708544
Cr 4.385969 4.396517 4.720354
Cr 4.509256 4.520102 1.575675
Cr 3.434188 8.361636 2.444827
Cr 2.373709 2.379418 1.574117
Cr 0.541835 5.462326 5.587485
P 7.860710 3.014324 4.131197
P 5.899820 1.048718 0.984997
P 6.422228 6.437674 1.577071
P 1.034515 5.902295 2.164832
P 2.472997 2.478945 4.718958
P 2.995405 7.867901 5.311032
O 5.292312 0.442880 -0.096636
O 1.486259 2.264561 3.706766
O 2.309352 4.691445 1.718227
O 4.685898 2.320629 1.431647
O 2.375559 4.091286 5.185176
O 2.666708 0.137634 1.632973
O 8.764012 6.249602 4.782191
O 0.131213 2.667017 1.513838
O 4.809648 6.531229 2.042183
O 6.519666 4.825334 1.110853
O 4.209327 6.595991 4.864382
O 1.574740 7.372237 2.364946
O 7.320486 1.544382 3.931084
O 8.465088 3.623286 3.050448
O 0.430138 5.293333 3.245581
O 1.526759 7.324141 5.509680
O 6.228517 8.778985 4.663056
O 7.408966 6.652058 2.589264
O 4.085577 2.385390 4.253846
O 7.368467 1.592478 0.786349
O 2.260988 1.491699 5.730276
O 6.634237 7.424920 0.565753
O 6.585873 4.225174 4.577802
O 3.602913 8.473739 6.392666
