32

Li 6.181284 4.989410 5.907972
Li 1.782082 1.438461 1.991023
Sn 4.877076 1.150995 -0.969551
Sn 3.086290 5.276877 8.868546
Sn 5.916677 1.990140 3.209303
Sn 2.046688 4.437731 4.689692
P 3.273166 0.453128 4.208856
P 1.049134 3.035747 8.233885
P 0.863324 0.696858 6.322546
P 6.914232 3.392125 -0.334891
P 7.100041 5.731013 1.576449
P 4.690199 5.974743 3.690139
O 0.722118 6.579093 5.342833
O 2.008361 4.091229 7.648581
O 3.504128 6.669448 7.472197
O 1.490073 2.650596 0.858283
O 3.445247 5.251055 3.276667
O 5.955005 2.336643 0.250413
O 2.961146 0.942340 3.054610
O 6.814554 -0.495640 -1.670474
O 4.459238 -0.241577 0.426798
O 1.475874 1.494463 7.361225
O 6.179460 5.291104 2.734647
O 1.148811 6.923511 9.569468
O 7.406750 2.137597 4.456916
O 1.783905 1.136767 5.164347
O 0.556615 4.290274 3.442078
O 5.002220 5.485532 4.844384
O 6.473292 3.777275 7.040711
O 7.241247 -0.151222 2.556161
O 6.487491 4.933409 0.537770
O 4.518119 1.176817 4.622328
