40

Li 0.422077 0.918285 0.201949
Li 5.314811 2.835859 5.285918
Sn 1.254174 7.859953 2.667117
Sn 6.146909 1.049889 7.848813
Sn 5.744863 5.614694 2.267132
Sn 1.861813 4.051190 0.890929
Sn 6.754548 -2.758874 8.717803
Sn 0.852119 3.697125 4.167045
Sn 7.409186 0.418686 3.107070
Sn 2.516451 7.228750 -0.381489
P 8.116284 3.394050 4.047577
P 7.179051 3.862626 7.897925
P 3.223539 1.476481 2.514574
P 7.738017 -0.780740 5.539929
P 2.286316 1.945060 6.513238
P 2.845272 6.029328 4.963014
O 6.577411 -0.430597 6.401746
O 6.742110 2.635003 3.537009
O 7.937435 4.595660 3.350013
O 1.684676 6.379467 3.824841
O 4.895211 0.410548 2.792456
O 3.044700 2.678085 3.502534
O 1.516895 2.099622 5.250025
O 1.849385 0.717433 2.357402
O 4.649811 5.622188 4.800685
O 7.422582 0.489272 4.886099
O 6.069858 4.912514 7.072857
O 6.409639 4.017191 0.937135
O 1.177114 2.994945 7.281693
O 2.378358 0.452898 6.735695
O 8.920366 4.104166 8.272629
O 3.083597 2.041829 1.379982
O 2.506010 4.752816 5.323350
O 7.976322 3.959409 5.300624
O 7.271093 2.370472 7.272489
O 2.529847 7.299327 5.882601
O 7.398745 -2.057239 4.698744
O 4.027650 2.186591 6.775680
O 9.542536 -1.187871 6.171783
O 0.002466 7.220617 -0.887904
