44

Li 6.418392 0.430395 -1.800344
Li 2.802943 4.137580 4.302269
Li 0.812507 8.705555 6.576047
Li 4.427957 4.998370 0.473434
Sb 4.609691 8.321124 0.907745
Sb 2.621208 0.814826 3.867958
Sb 6.236658 3.753149 -2.234654
Sb 0.994241 5.382801 7.010357
P 4.920613 6.903873 3.835223
P 0.449899 6.621810 4.270753
P 4.065349 7.082115 -1.831860
P 5.925737 2.335898 3.328331
P 3.165550 2.053835 6.607562
P 6.781000 2.514140 0.504950
P 2.310287 2.232077 0.940480
P 1.305163 6.800052 1.447371
O 2.661716 3.412551 6.244957
O 4.569184 5.723399 -1.469254
O 0.603968 2.242784 1.347925
O 4.704546 7.492493 5.248007
O 3.034678 3.556041 0.975164
O 6.650128 1.011934 3.363016
O 3.011482 6.810759 1.039926
O 1.252674 2.568645 4.080824
O 2.619502 0.874484 5.885405
O 4.219418 2.325191 3.735777
O 0.995948 5.442459 4.992911
O 6.277166 1.155424 0.142344
O 0.580771 8.124016 1.412687
O 2.876286 1.086200 1.681239
O 4.354614 8.049749 3.094464
O 0.953734 7.980526 4.633358
O 6.141803 2.924518 1.915547
O 6.626932 6.893166 3.427777
O 4.196221 5.579909 3.800539
O 4.611398 8.261466 -1.109702
O 5.978226 6.567304 0.694878
O 2.362776 7.136620 6.797491
O 2.526353 1.643457 -0.472304
O 0.739164 5.654175 0.706612
O 6.234952 3.693491 -0.217208
O 4.868124 1.999330 -2.021788
O 6.491735 3.481774 4.069091
O 1.089096 6.211432 2.860164
