44

Li 7.868193 3.731959 1.318211
Li 1.160897 1.406796 8.686881
Li 5.675442 1.162582 0.864388
Li 3.353648 3.976173 9.140704
Sb 6.884456 3.995141 -1.777764
Sb 6.659180 1.425763 3.960363
Sb 2.144635 1.143615 11.782856
Sb 2.369910 3.712992 6.044729
P 4.861100 3.871415 2.855027
P 8.482117 4.030824 5.268100
P 5.061518 1.461447 9.739538
P 8.682536 1.302037 -0.672427
P 0.546973 1.107931 4.736992
P 0.346555 3.836718 10.677520
P 4.167991 1.267340 7.150065
P 3.967572 3.677309 0.265554
O 4.125762 2.169284 0.080511
O 5.323389 1.149077 8.175459
O 0.808844 1.420301 3.172913
O 7.994420 5.042635 -0.376616
O 5.948636 4.955029 2.433906
O 8.661074 3.733331 9.215622
O 1.434090 2.753103 10.256398
O 5.318396 4.440090 -0.179174
O 6.295100 0.873234 10.334474
O 3.080455 0.183726 7.571187
O 1.034671 0.096120 10.381709
O 8.225239 1.870712 2.361774
O 4.882562 1.163954 5.792017
O 1.780555 1.696144 5.331928
O 5.549216 2.473257 2.559216
O 0.803851 3.268043 7.643319
O 0.388784 4.738662 4.922035
O 4.146528 3.974801 4.213075
O 2.733990 4.265521 -0.329381
O 3.479875 2.665498 7.445876
O 7.595000 2.385652 -0.251306
O 7.248536 3.442611 4.673165
O 0.368017 1.405424 0.789471
O 4.903329 2.969471 9.924581
O 3.705701 3.989678 1.829633
O 8.220246 3.718455 6.832179
O 8.640307 0.400093 5.083057
O 3.710694 0.698665 10.184266
