72

Li 0.119559 5.151514 2.729328
Li 4.988927 -0.112573 6.753888
Li 9.476781 1.693735 3.098465
Li 3.695139 7.064241 8.157106
Cr 2.438767 0.000604 1.982172
Cr 4.602975 4.148960 0.000141
Cr 5.090372 4.660634 4.831795
Cr 9.447667 6.477137 6.829565
Cr 7.308952 8.780008 2.811616
Cr 7.291655 6.653622 4.823172
Cr 0.217549 2.432784 7.720296
Cr 2.426074 2.212519 -0.000310
P 7.951135 -0.233934 5.090942
P 1.526103 5.218166 9.355517
P 4.401759 7.812715 4.463486
P 6.667752 5.743286 1.929061
P 0.472904 7.923822 4.549013
P 1.692443 9.167472 9.346861
P 3.308087 2.818774 6.774347
P 5.335477 1.015231 0.307451
P 3.050639 3.011978 2.905798
P 9.269257 0.872769 0.336756
P 6.340037 6.054326 7.727783
P 8.185883 3.678944 5.257733
O 3.845437 1.543306 6.204731
O 4.358707 3.531681 3.532476
O 8.618285 -0.456820 0.739703
O 8.932665 2.041432 1.214445
O 1.736546 2.991665 6.661137
O 7.901133 6.060062 7.899965
O 1.000151 5.647157 1.000294
O 5.832257 4.729574 8.313730
O 0.715225 7.955034 6.091855
O 8.970987 1.076825 8.504121
O 1.185831 3.668766 9.120402
O 3.146098 1.438391 3.003104
O 8.068349 0.056761 3.556342
O 1.593889 0.995978 8.392375
O 8.624174 7.312914 3.527824
O 0.900954 6.645019 3.903878
O 6.713608 7.285255 1.699977
O 5.626798 7.287740 8.226270
O 6.605213 3.560631 5.290593
O 5.709992 0.447839 8.646090
O 4.146667 6.261256 4.338971
O 2.915749 8.671506 8.607886
O 3.994607 8.332761 5.802768
O 8.074130 7.938192 6.088806
O 6.514251 5.446882 3.492267
O 3.746844 0.828669 0.547030
O 3.084474 5.412643 9.170218
O 6.683092 0.278975 5.717530
O 1.142555 9.212615 3.989305
O 0.336485 8.618570 8.887583
O 1.737150 3.530560 3.452308
O 5.674795 2.526424 0.413391
O 3.676119 2.902413 8.327886
O 3.731553 8.447325 3.232455
O 8.770326 3.199528 3.965368
O 5.335049 5.271463 1.330148
O 6.026309 5.967940 6.152385
O 8.712790 2.971150 6.513740
O 3.209221 3.392449 1.354996
O 1.138525 1.490719 1.283534
O 8.534721 5.230183 5.439381
O 0.887736 5.969370 8.145766
O 7.923365 5.053733 1.420606
O 9.272080 0.356643 5.672517
O 3.897153 4.126326 6.177608
O 1.796457 8.862694 1.199868
O 6.003045 0.303871 1.496340
O 5.988484 8.025696 4.218800
