24

Li 4.826333 2.226829 5.711780
Li 1.916561 3.179991 4.288525
Li 3.454751 0.904950 0.373453
Li 0.544985 1.858108 -1.049803
Sn 0.724892 0.479781 2.472318
Sn 4.646426 3.605156 2.189659
P 2.576927 4.343399 -1.713460
P 4.104031 0.630724 3.764649
P 1.267287 3.454213 0.897327
P 2.794390 -0.258461 6.375436
O 0.110853 2.289166 4.629357
O 3.766142 0.643171 6.788744
O 1.969071 -0.764718 1.150584
O 3.626762 0.562493 2.480492
O 5.260465 1.795772 0.032620
O 4.108682 2.103731 3.985014
O 2.592005 4.018279 -0.167653
O 1.605175 3.441766 -2.126767
O 1.262636 1.981206 0.676963
O 2.779313 0.066658 4.829629
O 4.196224 4.117161 -2.228886
O 1.744556 3.522445 2.181485
O 3.402246 4.849655 3.511393
O 1.175094 -0.032223 6.890862
