60

Sn 1.858828 4.439514 3.963718
Sn 10.767022 3.598948 3.274437
Sn 5.163619 0.866795 6.358856
Sn 10.767022 0.420283 -1.479364
Sn 1.858828 7.618179 8.717518
Sn 7.462231 4.886027 5.633099
Sn 5.163619 3.152436 1.605056
Sn 7.462231 7.171667 0.879299
P 0.668173 4.669487 7.223094
P 0.668173 7.388207 2.469294
P 4.431522 6.286496 8.283258
P 3.341141 0.599557 3.278706
P 8.194328 1.751967 -1.045103
P 3.341141 3.419674 8.032506
P 4.431522 5.771198 3.529457
P 11.957678 0.650255 4.768861
P 11.957678 3.368976 0.015061
P 8.194328 2.267264 3.708697
P 9.284709 4.618788 -0.794352
P 9.284709 7.438906 3.959449
O 3.936109 4.848423 7.645574
O 3.627899 5.561386 4.774401
O 6.648078 1.767368 -1.174838
O 3.876224 2.427559 7.069510
O 3.627899 6.496308 0.020600
O 9.070562 4.931950 7.287818
O 3.806063 7.373682 7.319298
O 6.648078 2.251863 3.578962
O 3.806063 4.684012 2.565497
O 0.811160 0.175327 6.859397
O 8.819788 3.354450 4.672657
O 3.555288 0.912719 4.704137
O 0.850275 7.163323 1.005905
O 8.819788 0.664781 -0.081143
O 8.689741 3.190040 -0.407419
O 11.814690 7.863135 0.378757
O 8.997951 1.542155 7.217554
O 8.749626 5.610903 0.168645
O 3.936109 7.209271 2.891774
O 11.775575 0.875139 6.232249
O 5.977772 5.786600 3.659192
O 11.606085 1.801628 3.854382
O 1.019765 6.236834 3.383772
O 10.918557 7.498840 4.286066
O 0.850275 4.894371 5.759706
O 8.997951 2.477076 2.463754
O 5.977772 6.271094 8.412992
O 11.606085 2.217603 -0.899418
O 3.555288 3.106512 -0.049663
O 0.811160 3.843904 2.105597
O 9.070562 7.125743 2.534017
O 1.707293 0.539622 2.952089
O 10.918557 4.558853 -0.467735
O 11.814690 4.194558 5.132557
O 1.019765 5.820860 8.137573
O 1.707293 3.479609 7.705889
O 8.749626 6.446791 4.922445
O 3.876224 1.591672 2.315709
O 8.689741 0.829192 4.346381
O 11.775575 3.144092 1.478449
