56

Li 5.764113 7.546129 2.304921
Li 10.607891 4.326713 5.104574
Li 0.306779 10.263133 3.294386
Li 5.150556 1.609708 0.494732
Sn 4.291888 10.861655 3.367849
Sn 9.749223 6.947607 2.231458
Sn 1.165447 1.011186 0.568195
Sn 6.622781 4.925235 5.031111
P 9.294965 10.202665 0.624978
P 3.260932 2.170379 3.327069
P 1.619704 4.266244 2.174675
P 7.077039 1.670176 3.424631
P 6.363667 10.385222 0.666810
P 3.837630 7.606597 4.974329
P 10.008337 1.487620 3.466469
P 2.196403 9.702462 0.527415
P 7.653737 8.106800 5.071891
P 8.718267 3.766042 2.272238
P 0.906332 7.424040 4.932491
P 4.551002 4.448801 2.132843
O 8.765123 4.626419 3.517725
O 9.879337 2.639938 2.323690
O 2.406237 6.832203 4.907132
O 7.606881 7.246422 0.718072
O 4.422002 3.296483 3.275617
O 4.918794 3.782580 0.828053
O 3.517165 8.775098 0.482235
O 8.508432 0.895782 3.491828
O 8.974500 9.034164 5.117072
O 5.995875 9.719001 1.971600
O 4.831226 6.703513 0.027974
O 0.538541 8.090261 3.627707
O 1.308669 3.623294 0.845534
O 5.430408 11.417304 0.094964
O 6.766004 2.313126 4.753772
O 6.083444 0.767092 2.771679
O 3.051098 5.040639 2.107478
O 6.492667 9.232903 5.123343
O 7.863572 10.977059 0.692175
O 7.567228 7.419244 3.739682
O 10.887743 6.391958 5.504342
O 7.397504 2.838678 2.317419
O 10.376129 2.153840 4.771253
O 10.288560 11.105749 5.571332
O 3.307789 1.310002 2.081581
O 1.035333 8.576359 0.475963
O 5.484261 5.480883 2.704689
O 8.804776 4.453598 0.940028
O 2.149546 10.562840 4.881235
O 9.606001 9.559715 1.954119
O 3.347442 1.482823 4.659278
O 1.940170 3.097743 3.281888
O 0.026926 0.455537 2.894618
O 2.109893 10.390018 1.859625
O 0.626120 5.169328 2.827627
O 4.148666 8.249547 3.645188
