26

Sn 4.483769 6.124305 5.146435
Sn 4.482929 6.124606 -0.000872
P 6.457409 4.827958 7.719952
P 6.457214 7.686826 2.572710
P 1.846172 6.515191 2.573557
P 1.846078 5.380532 7.719862
P 5.147222 4.172661 2.572751
P 5.147619 8.166018 7.719561
O 5.165166 3.734455 7.723169
O 4.421680 7.704644 9.007433
O 6.349398 7.003461 3.853457
O 6.350864 5.497440 6.439237
O 2.680499 5.167813 6.439021
O 1.328742 0.863889 7.722870
O 4.421034 7.709446 6.438427
O 2.685556 6.837735 1.285674
O 2.685153 5.171346 9.007769
O 6.343816 7.001770 1.284504
O 4.420079 4.531566 3.853889
O 5.166121 2.783272 2.570285
O 4.420671 4.536043 1.285130
O 6.345625 5.498612 9.007893
O 1.329637 5.137831 2.571120
O 0.230703 4.589109 7.722942
O 0.230260 1.265818 2.570645
O 2.680364 6.840515 3.854309
