44

Li 5.970538 4.457514 6.912716
Li 4.102354 6.198627 13.274560
Li 2.681570 -0.296641 6.245609
Li 0.813386 1.444472 12.607452
Bi 5.288068 2.012166 8.504098
Bi 1.495855 3.889819 11.016070
Bi 5.058338 5.178714 16.406470
Bi 1.725586 0.723272 3.113698
P 4.456054 1.617722 15.346404
P 1.700689 2.586992 7.732415
P 2.327869 4.284263 4.173764
P 5.158638 1.066870 4.971445
P 5.083235 3.314994 11.787753
P 0.806045 0.646559 8.997356
P 1.625286 4.835115 14.548723
P 5.977878 5.255427 10.522812
O 2.847728 1.664978 7.371355
O 1.896473 6.342115 11.789060
O 5.645445 2.159818 6.380285
O 2.242365 3.761561 9.078043
O 1.138478 3.742167 13.139883
O 1.306414 1.530729 10.524109
O 3.843011 4.899124 4.762035
O 4.541559 2.140424 10.442125
O 4.564149 2.969791 15.083425
O 3.016675 5.596766 14.800671
O 5.531021 0.633006 14.917579
O 6.283826 0.059811 4.700743
O 1.252902 5.268980 4.602589
O 4.887451 -0.440130 7.731108
O 0.811778 3.071669 6.532014
O 2.219774 2.932195 4.436743
O 0.630620 1.617814 8.000171
O 4.897972 1.963960 3.894112
O 0.500097 5.842175 14.819425
O 6.096529 5.918678 14.922787
O 3.767248 0.305220 4.719497
O 1.885951 3.938025 15.626056
O 3.936195 4.237008 12.148813
O 6.153304 4.284172 11.519997
O 2.940912 1.002862 14.758133
O 0.687395 -0.016692 4.597382
O 5.972146 2.830316 12.988154
O 5.477509 4.371256 8.996059
