42

Li 5.583483 4.445019 2.802378
Li 8.356504 -1.778700 4.762150
Li 2.844587 3.506717 3.905084
Li 2.770015 1.173533 2.803952
Li 5.768263 1.952026 4.764373
Li 0.184661 4.905367 2.801697
Li 5.691335 -0.380940 3.661441
Li 2.953976 -1.317866 4.763269
Li 8.537886 -4.267131 3.782110
Bi 8.535477 3.125776 7.565942
Bi 2.848848 3.506324 0.384118
Bi 5.695997 -0.382629 7.182021
P 2.853853 -1.237575 1.881683
P 8.320474 -1.878805 1.881297
P 0.219368 5.005246 5.682769
P 2.635271 1.153459 5.685803
P 5.686458 4.361541 5.683306
P 5.905988 1.971157 1.883998
O 4.996740 -1.722935 5.583793
O 2.158986 2.048396 4.576688
O 1.080005 6.226055 2.086788
O 0.897351 3.396054 1.982948
O 1.807256 0.031042 5.476474
O 3.609764 -0.547072 2.991320
O 0.972768 5.019752 7.089590
O 7.571488 -1.899867 0.476527
O 7.461032 -3.100374 5.469628
O 3.155674 -0.735291 0.474706
O 4.099970 2.277223 1.984886
O 7.811642 1.923140 5.478008
O 6.381633 1.077657 2.993521
O 6.361299 1.486911 0.478606
O 7.084477 -1.673165 2.990167
O 7.643037 -0.271772 5.580861
O 4.440076 0.846572 5.582895
O 3.542102 4.847879 1.983769
O 0.727798 1.201084 2.095297
O 5.394825 3.857859 7.087529
O 4.926200 3.672768 4.573979
O 6.731697 3.095112 2.093743
O 1.451804 4.801291 4.573384
O 2.182061 1.638740 7.091770
