97

Li 1.651398 2.296127 15.443996
Li 1.633036 2.271552 19.674836
Li 4.451751 6.196609 46.027165
Li 1.654870 2.299231 28.450591
Li 4.440792 6.185530 50.312248
Li 1.646929 2.292943 32.744282
Li 4.452250 6.187092 54.648510
Li 1.645445 2.293566 37.070784
Li 4.452300 6.185169 58.985981
Li 1.642276 2.292072 41.384833
Li 4.452479 6.183387 63.310751
Li 1.634850 2.288917 45.679792
Li 4.453319 6.180085 67.633284
Li 1.621707 2.282994 49.945955
Li 4.453157 6.170435 71.938286
Li 4.461613 6.209759 76.396791
Li 4.432632 6.167804 80.503823
Nb 0.129614 0.147682 0.999204
Nb 0.047326 0.105267 4.930628
Nb 2.830358 3.979314 26.784851
Nb 0.079739 0.085361 9.387060
Nb 2.881341 4.043530 31.411572
Nb 0.105824 0.171071 14.005903
Nb 2.894277 3.998271 35.643722
Nb 0.087137 0.120374 18.131086
Nb 2.885843 4.013492 40.020158
Nb 0.089091 0.126805 22.490400
Nb 2.888632 4.020089 44.384144
Nb 0.091119 0.127351 26.826416
Nb 2.889635 4.023583 48.727137
Nb 0.089332 0.123780 31.136306
Nb 2.887132 4.022207 53.041881
Nb 0.093656 0.117360 35.453110
Nb 2.881391 4.017930 57.333656
Nb 0.092278 0.129293 39.828621
Nb 2.887031 4.016495 61.676631
Nb 2.941256 4.013177 66.115398
O 0.910728 2.114878 14.041459
O 2.072333 4.640364 24.707038
O 4.120563 3.083627 27.357235
O 1.364636 4.852615 25.073600
O 3.477995 3.112002 27.517762
O 0.719228 2.127084 17.810832
O 4.869191 5.653023 38.906020
O 1.927308 4.454640 27.978767
O 4.112409 2.925458 31.217079
O 1.391572 4.820907 29.410650
O 3.727830 3.178069 32.787264
O 0.689469 2.165086 22.145699
O 4.910693 5.667029 43.390863
O 2.136118 4.660617 33.634822
O 4.202604 2.923021 35.927127
O 1.288217 4.647266 32.869613
O 3.572815 3.092450 36.366616
O 0.699896 2.129769 26.352227
O 4.748667 5.737029 47.344860
O 2.094330 4.620195 37.675361
O 4.106227 2.904794 39.784925
O 1.317561 4.799508 37.701804
O 3.507087 3.059527 40.371080
O 0.709394 2.137882 30.740427
O 4.880845 5.647177 51.889815
O 2.098110 4.598438 41.938083
O 4.135555 2.902676 44.221005
O 1.331058 4.807729 42.101022
O 3.505149 3.072266 44.734501
O 0.711589 2.138420 35.076195
O 4.899656 5.654237 56.273940
O 2.098844 4.602010 46.279393
O 4.139228 2.904610 48.570089
O 1.331030 4.809744 46.434041
O 3.504869 3.074139 49.068400
O 0.713633 2.137512 39.405739
O 4.898496 5.658722 60.609712
O 2.100076 4.602951 50.612161
O 4.141082 2.905101 52.905888
O 1.330414 4.810919 50.760451
O 3.503005 3.075520 53.393537
O 0.718875 2.138146 43.747893
O 4.897186 5.659856 64.934566
O 2.102064 4.603801 54.944844
O 4.143238 2.905296 57.241970
O 1.327978 4.815989 55.089075
O 3.495724 3.082238 57.715771
O 0.722896 2.161353 48.161465
O 4.892045 5.660296 69.242054
O 2.111326 4.611852 59.322586
O 4.141177 2.903198 61.543324
O 1.376480 4.823361 59.640935
O 3.681238 3.174844 62.923047
O 0.709971 2.152021 52.433622
O 4.892717 5.688583 73.635494
O 2.121591 4.669370 63.894478
O 4.217724 2.940866 66.312056
O 1.272033 4.614047 62.987655
O 3.553237 3.078225 66.531719
O 4.749591 5.744253 77.661601
