48

Li 2.555758 1.408599 5.838571
Li 2.153720 5.920391 2.317454
Li 2.555758 3.103192 12.823866
Li 2.153720 7.614984 9.302749
Cr 1.689017 8.417659 12.282650
Cr 1.689017 5.117717 5.297355
Cr 3.020461 0.605925 2.858670
Cr 3.020461 3.905867 9.843965
P 3.978553 3.619558 4.297097
P 0.730925 8.131350 3.858928
P 4.034968 6.998998 7.031111
P 0.730925 5.404026 10.844223
P 0.674510 2.024585 8.110209
P 3.978553 0.892234 11.282392
P 0.674510 2.487207 1.124913
P 4.034968 6.536377 14.016406
O 3.602148 2.350210 11.477314
O 4.669094 8.258781 6.302329
O 0.536306 7.485171 13.282915
O 2.249831 0.553137 13.309056
O 0.040384 0.764803 8.838991
O 3.045926 6.405770 5.849481
O 4.173172 1.538413 1.858405
O 0.179144 0.372268 11.368172
O 4.530334 4.884060 10.758443
O 2.459647 8.470447 1.832264
O 3.045926 7.129606 12.834776
O 4.669094 5.276595 13.287624
O 0.536306 6.050205 6.297620
O 4.173172 2.973379 8.843700
O 1.663552 1.893978 2.306544
O 2.744721 4.556251 3.889469
O 1.964757 4.467333 11.251851
O 1.964757 0.044459 4.266556
O 3.602148 2.161581 4.492019
O 0.040384 3.746989 1.853696
O 2.744721 8.979125 10.874764
O 1.663552 2.617814 9.291839
O 2.459647 5.064929 8.817559
O 3.475194 7.548841 8.194365
O 2.249831 3.958655 6.323761
O 4.530334 8.651316 3.773148
O 3.475194 5.986534 1.209070
O 1.107330 6.673373 3.664006
O 1.234284 3.037050 13.932249
O 1.107330 6.862002 10.649301
O 0.179144 4.139524 4.382877
O 1.234284 1.474742 6.946954
