56

Li 1.946506 6.798642 0.520879
Li 6.822056 3.447684 2.568137
Li 0.568105 9.075654 6.056303
Li 7.385047 2.663908 5.323649
Li 2.509497 6.014866 3.276390
Li 8.763448 0.386896 -0.211776
V 3.225423 3.941355 1.236794
V 2.128350 0.259641 4.235692
V 7.203203 9.202909 1.608835
V 6.106130 5.521195 4.607733
P 6.788658 8.666816 4.846169
P 3.870215 3.258554 4.420656
P 8.916178 1.115826 3.031133
P 9.246842 5.288422 4.578784
P 3.886769 8.248946 4.942082
P 0.084712 4.174128 1.265743
P 2.542895 0.795734 0.998358
P 5.444784 1.213604 0.902445
P 0.415375 8.346724 2.813394
P 5.461338 6.203996 1.423871
O 8.894911 6.185763 3.281008
O 7.806946 4.582102 4.654593
O 5.315318 8.904959 5.392908
O 8.571778 0.081690 1.897466
O 7.702264 1.751256 3.649649
O 0.759775 9.380860 3.947062
O 1.048493 5.420267 4.438641
O 6.368216 1.279059 6.173567
O 5.976337 5.612072 0.049274
O 7.685635 9.178379 -0.421220
O 5.929782 0.051572 1.852831
O 3.936973 5.856447 1.376411
O 3.401771 9.410978 3.991696
O 1.645918 0.284171 6.265747
O 8.283060 4.042283 1.405886
O 1.524608 4.880448 1.189934
O 4.227520 6.897801 4.264449
O 9.165433 2.224965 -0.150986
O 5.830187 7.677420 1.547305
O 3.501367 1.785130 4.297222
O 4.016235 0.557581 0.451620
O 2.346176 2.285283 1.236187
O 2.241924 0.065698 2.278977
O 6.985377 7.177267 4.608340
O 5.104033 2.564749 1.580078
O 8.706059 7.957631 1.638240
O 0.625494 1.504920 4.206287
O 1.629289 7.711294 2.194878
O 0.166120 7.237585 5.995513
O 6.063737 5.423473 2.636284
O 2.963337 8.183491 -0.329040
O 7.089629 9.396852 3.565550
O 5.394580 3.606104 4.468117
O 0.436642 3.276787 2.563519
O 3.267817 4.039077 3.208243
O 3.355216 3.850478 5.795253
