16

Li 5.949375 2.970768 0.621647
Li 5.949411 5.933703 2.103500
Li 5.949369 2.970780 -1.488616
Li 2.974610 2.966881 4.217198
Cr 2.974699 0.004070 2.735396
Cr 0.000030 0.000018 4.220543
Fe 2.974723 2.966875 2.106887
Fe 2.974729 5.929745 3.588713
O 4.421599 4.580314 4.240766
O 4.416840 1.442607 2.672378
O 1.514253 4.498414 3.531873
O 4.334720 4.498985 2.122062
O 1.614709 1.434712 2.091749
O 4.435164 1.435272 0.681925
O 1.532601 4.491131 1.541427
O 1.527818 1.353430 -0.026930
