18

Mn 0.848210 3.366641 4.914971
Mn 3.392989 4.638523 9.835366
Mn 1.695988 2.319893 0.005422
Mn 4.240766 3.591775 4.925816
Mn 2.544488 1.272244 4.920394
Fe 0.000000 0.000000 0.000000
O 5.088244 5.457985 0.982439
O 1.730211 3.778969 8.863877
O 0.850271 1.896448 3.963581
O 2.546605 4.215918 3.969004
O 2.542371 2.742498 5.871783
O 0.846002 0.423001 5.866498
O 4.238705 5.061968 5.877206
O 3.358765 3.179447 0.976910
O 1.723743 5.275799 0.968824
O 0.000733 1.500431 8.858349
O 3.365233 1.682617 8.871963
O 4.242975 6.535415 3.974289
