14

Li 0.646975 1.127625 1.362941
Li 5.579148 7.489944 8.865424
Mn 3.113062 1.556531 4.124804
Mn 3.113062 4.308784 2.545909
Nb 0.000000 2.752254 3.557651
Nb 3.113062 4.308784 5.114182
O 1.449933 2.275614 2.729383
O 1.535866 2.338666 5.037494
O 1.535866 4.738252 3.660914
O 4.381392 3.741343 4.195112
O 1.844732 4.876226 6.033252
O 4.690257 6.278902 5.190871
O 4.690257 3.879317 6.567450
O 4.776190 6.341955 7.498982
