71

Li 3.717648 0.100725 2.601136
Li 1.222492 4.967697 5.935440
Li 1.209019 1.004377 4.615057
Li 1.086921 1.763817 7.201664
Li 3.690111 5.331697 11.399859
Li 1.234766 6.231012 13.415297
Li 1.228617 2.358086 12.604029
Li 1.082406 6.959855 16.013520
Li 3.709444 2.758746 18.114651
Li 1.200229 7.586186 21.386227
Li 1.051156 4.205975 22.261503
V 1.113112 6.156602 2.948564
V 1.339082 2.176616 1.754107
V 3.766186 6.789359 7.884700
V 3.505904 2.974256 6.860737
V 1.325590 7.396184 10.531993
V 1.079162 3.561948 9.609831
V 3.789183 4.186672 14.530656
V 3.507929 0.358681 13.520382
V 1.347031 4.767293 17.278751
V 1.077132 0.958481 16.279928
V 3.537614 5.603285 22.275367
V 3.759347 1.543107 21.134524
O 4.706895 5.350314 1.490570
O 0.520128 7.685014 3.433001
O 2.710172 1.465146 0.521603
O 1.819130 3.724838 2.220824
O 4.366537 5.265681 7.295525
O 0.311672 7.715175 9.160135
O 2.917259 1.437907 6.295759
O 2.189364 3.618167 8.042025
O 2.749254 6.630369 9.318838
O 4.670641 2.717835 8.188570
O 0.499602 5.095545 10.073378
O 1.840048 1.086501 8.882853
O 2.913521 6.667158 15.099500
O 4.366483 2.647690 13.953919
O 0.296732 5.062380 15.822217
O 2.190509 1.001941 14.704454
O 2.716600 4.058906 15.957294
O 1.838331 6.318020 17.717350
O 4.673836 0.101830 14.841161
O 0.485454 2.484128 16.743365
O 3.015915 4.052593 21.773570
O 2.211862 6.218886 23.532872
O 4.375079 0.020099 20.631169
O 0.261148 2.432841 22.507181
F 2.711297 6.349762 3.867874
F 4.765036 1.940492 2.647973
F 0.453637 5.333070 4.331432
F 2.186140 1.266707 3.055998
F 2.854705 3.861754 5.545495
F 2.222223 6.816549 6.841782
F 4.512254 7.690667 6.443200
F 0.298405 2.770050 5.954097
F 4.752738 7.186634 11.423122
F 2.687170 3.733163 10.512298
F 2.166034 6.481248 11.842021
F 0.449527 2.736496 11.003247
F 4.527747 5.082481 13.086936
F 2.857234 1.248708 12.208796
F 2.236914 4.213326 13.477753
F 0.297245 0.148715 12.612402
F 4.705164 4.624770 18.054918
F 0.427411 0.122613 17.647613
F 2.677181 1.129073 17.178013
F 2.164978 3.886846 18.487667
F 2.797450 6.473113 21.013746
F 4.435773 2.410653 19.773874
F 0.264866 5.614064 21.452172
F 2.188268 1.389349 20.178581
