22

Li 0.902495 4.351744 3.870343
Li 4.383121 2.677504 3.753536
Li 3.063881 5.705032 5.821911
Li 4.864855 4.838733 1.365759
Mn 0.000069 4.786002 6.102676
Mn 1.773704 3.932752 1.714378
Mn 3.512119 3.096545 5.909299
Cr 0.452926 2.175201 6.178646
Cr 2.190109 1.339668 1.880818
Cr 3.964405 5.272025 3.593846
O 1.145561 1.523278 8.306251
O 0.569067 2.424576 1.841045
O 0.939819 4.577346 -0.333620
O 2.411181 1.538531 6.162683
O 1.595120 3.775737 5.921460
O 3.421862 2.896865 1.746634
O 2.785252 3.704540 3.787611
O 2.994372 5.433322 1.549254
O 4.140446 5.506146 7.812394
O 4.614928 2.809310 7.913636
O 4.597173 4.662258 5.694128
O 5.143696 6.839301 3.399550
