24

Mn 0.295661 7.122457 4.471253
Fe 2.293882 2.215213 4.471253
Fe 2.629649 7.660016 1.490418
Fe 4.745324 2.633646 1.490418
P 0.395190 5.913788 1.490418
P 2.032965 0.934500 1.490418
P 2.847191 8.887796 4.471253
P 4.514809 3.935576 4.471253
O 0.727169 4.423448 1.490418
O 1.127618 6.643874 0.303860
O 1.127618 6.643874 2.676975
O 1.123438 3.777930 4.471253
O 1.310250 8.716645 4.471253
O 1.332689 1.692369 0.290459
O 1.332689 1.692369 2.690377
O 1.684324 9.369506 1.490418
O 3.136967 0.469732 4.471253
O 3.521578 8.167859 3.254625
O 3.521578 8.167859 5.687881
O 3.544796 1.133594 1.490418
O 3.791565 6.087418 1.490418
O 3.796961 3.211303 3.273166
O 3.796961 3.211303 5.669340
O 4.175058 5.437331 4.471253
