56

Li 0.369163 6.781786 4.683868
Li 2.226407 10.104733 2.882753
Li 2.921451 3.365405 2.882753
Li 4.778695 0.042458 4.683868
Li 5.517021 6.781786 0.462160
Li 7.374265 10.104733 2.263274
Li 8.069309 3.365405 2.263274
Li 9.926553 0.042458 0.462160
Fe 0.419489 10.153539 0.355318
Fe 2.204117 0.000377 2.857723
Fe 2.943741 6.739706 2.857723
Fe 4.728369 3.414211 0.355318
Fe 5.567347 10.153539 4.790710
Fe 7.351975 0.000377 2.288305
Fe 8.091599 6.739706 2.288305
Fe 9.876227 3.414211 4.790710
Si 0.351784 5.060225 2.194148
Si 2.188149 1.724378 0.289541
Si 2.959710 8.463707 0.289541
Si 4.796074 11.799553 2.194148
Si 5.499642 5.060225 2.951880
Si 7.336007 1.724378 4.856486
Si 8.107568 8.463707 4.856486
Si 9.943932 11.799553 2.951880
O 10.210045 11.739384 4.581138
O 9.909030 6.411945 2.788643
O 0.342003 10.485572 2.231956
O 0.566522 1.827153 0.030068
O 1.961571 5.130704 2.523602
O 2.397430 7.128322 4.644769
O 2.963035 3.059089 4.856507
O 2.554120 1.609783 1.895333
O 2.593738 8.349111 1.895333
O 2.184823 9.798417 4.856507
O 2.750428 0.388994 4.644769
O 3.186287 11.870033 2.523602
O 4.581336 8.566481 0.030068
O 4.805855 3.746244 2.231956
O 5.534545 13.151273 2.788643
O 5.233529 5.000056 4.581138
O 5.062187 11.739384 0.564890
O 4.761172 6.411945 2.357385
O 5.489861 10.485572 2.914072
O 5.714380 1.827153 5.115959
O 7.109429 5.130704 2.622426
O 7.545288 7.128322 0.501259
O 8.110893 3.059089 0.289521
O 7.701978 1.609783 3.250694
O 7.741596 8.349111 3.250694
O 7.332681 9.798417 0.289521
O 7.898287 0.388994 0.501259
O 8.334145 11.870033 2.622426
O 9.729194 8.566481 5.115959
O 9.953713 3.746244 2.914072
O 0.386687 13.151273 2.357385
O 0.085671 5.000056 0.564890
