26

Li 0.214086 1.682227 7.963868
Li 1.772716 2.489943 4.592677
Li 1.952776 2.586399 9.774519
Li 1.506883 4.193814 8.153017
Li 3.671150 6.655436 7.993994
Li 3.363483 3.543000 6.819158
Li 2.028263 5.692569 2.562132
Li 3.605421 3.460047 2.682327
Li 3.768454 5.100301 4.400837
Li 3.679224 5.072530 9.950596
Li 5.497258 4.671745 1.464765
Li 5.464516 6.278648 2.792511
V 5.537758 7.649767 -0.005165
V 0.031414 4.882232 5.339273
O 5.471584 2.844068 7.146986
O 1.651939 5.685486 4.723783
O 0.042723 3.462378 4.783049
O 1.978194 2.657645 7.864814
O 1.617679 4.281876 10.151426
O 3.874605 3.366662 4.860255
O 3.890776 5.083198 2.493492
O 5.550595 4.234777 10.229157
O 3.948925 6.797830 10.109397
O 5.541965 2.878466 1.786990
F 1.717479 2.502381 2.505868
F 3.676935 4.990689 7.862736
