28

Li 0.070041 6.104251 3.321262
Li 2.761944 2.163797 4.900701
Li 2.902025 5.717109 0.789720
Li 5.593929 1.776656 7.432244
Mn 1.306547 3.160795 2.025324
Mn 1.525432 7.101248 6.196639
Mn 4.138538 0.779658 2.085657
Mn 4.357416 4.720111 6.136306
F 0.003902 0.159793 6.298476
F 0.444786 4.747521 2.024280
F 0.479381 5.501558 6.208347
F 1.171014 2.949776 0.216657
F 1.388347 3.057319 3.842362
F 1.443638 6.997772 4.379602
F 1.660970 6.890229 8.005307
F 2.352603 1.561105 2.013616
F 2.387199 0.807068 6.197683
F 2.828082 4.100247 1.923487
F 2.835887 3.780660 6.034469
F 3.276771 7.073839 2.086701
F 3.311366 6.319801 6.124598
F 4.002999 0.990677 3.894325
F 4.220331 0.883134 0.268620
F 4.275623 4.823588 7.953344
F 4.492955 4.931131 4.327639
F 5.184588 2.379348 2.097365
F 5.219184 3.133385 6.135262
F 5.660067 7.721113 2.187495
