54

Li 0.813455 7.153805 11.051313
Li 0.797017 2.403942 7.789185
Li 3.190560 7.583607 8.459465
Li 3.206184 4.178418 6.132831
Li 6.384026 8.392407 6.452407
Li 6.399793 4.986085 4.124964
Li 8.794603 10.166276 4.796212
Li 8.778202 5.415256 1.533276
Ni -0.000269 4.079617 2.795899
Ni 4.796121 2.206886 3.495921
Ni 4.795392 6.285174 10.168163
Ni 4.795584 10.363061 5.213037
C 3.282096 9.198025 10.971789
C 2.578696 4.796980 8.798960
C 6.861818 10.843779 10.839407
C 6.823185 7.688060 8.659868
C 2.767647 4.882171 3.925073
C 2.729476 1.725937 1.745295
C 7.012021 7.773092 3.786174
C 6.308775 3.371653 1.613092
S 1.198791 6.668899 7.006374
S 8.392167 5.901038 5.578519
O 3.229959 8.047402 11.141803
O 0.647993 7.518236 8.258827
O 3.376001 9.248522 9.935836
O 1.300080 4.215847 8.981848
O 6.759070 10.805656 11.878940
O 2.665370 5.967689 9.499203
O 0.455090 7.427108 6.320958
O 0.638392 5.309299 6.739771
O 3.970677 9.324123 7.608218
O 5.555570 7.094404 8.837502
O 3.739871 4.204069 7.891764
O 3.053362 6.421457 6.705946
O 8.238405 10.347038 10.090336
O 6.656706 8.739768 8.334398
O 3.197322 2.133349 6.231330
O 1.352073 5.359829 3.808160
O 8.238837 7.209939 8.776636
O 6.393694 10.436819 6.353527
O 2.933906 3.830386 4.250702
O 1.352696 2.222338 2.494580
O 6.537951 6.148334 5.878869
O 5.850741 8.365734 4.693180
O 4.035502 5.475570 3.747394
O 5.620357 3.245817 4.976724
O 8.952527 7.260360 5.845093
O 9.135695 5.143052 6.263876
O 6.925732 6.602176 3.085552
O 2.831888 1.764339 0.705860
O 8.290848 8.354151 3.603477
O 6.214564 3.321104 2.649038
O 8.942821 5.051872 4.326310
O 6.360835 4.522616 1.443418
