16

Li 0.000000 3.056316 0.620524
Li 3.057212 2.982289 -0.853392
Li 3.057212 -0.074026 -1.473917
Li 3.057212 2.982289 -2.983965
Ti 0.000000 0.000000 2.130573
Ti 0.000000 0.000000 0.000000
Mn 0.000000 3.056316 -1.510048
Mn 3.057212 -0.074026 0.656656
O 1.369643 4.706479 -3.000656
O 1.367057 1.374570 0.680180
O 1.373391 4.710135 -0.876546
O 4.706340 4.632012 -4.518018
O 1.408085 1.332561 2.811237
O 4.741033 1.254444 -0.830238
O 4.747362 4.590009 -2.386961
O 4.744781 1.258100 1.293872
