28

Li 1.903450 2.402583 8.514710
Li 0.060289 -0.004321 9.535499
Li 0.071235 -0.002293 4.734103
Li 3.865873 -0.261199 3.646581
Fe 1.989988 2.405849 4.608678
Fe 3.867259 2.275091 1.935764
Fe 3.931095 -0.272456 9.361829
Fe 4.865571 0.909938 6.730336
Fe 4.871508 -1.577791 6.751627
Co 0.984735 3.715839 1.964807
Co 0.987941 1.225045 1.992649
Co 2.000340 -0.142581 6.783867
O 1.002880 3.760333 5.674371
O 0.236835 2.520716 3.061651
O 1.844217 2.413482 0.955103
O 0.108024 -0.008007 2.933372
O 0.073003 -0.006076 7.723687
O 0.994800 1.193034 5.690272
O 2.737318 3.498972 3.068701
O 2.739091 1.209116 3.094363
O 1.869438 -0.124695 1.028890
O 3.985583 2.264963 5.583542
O 3.004682 0.912581 7.986746
O 3.007730 -1.333858 8.016813
O 3.856736 -0.260164 5.708425
O 4.985175 0.949777 0.872663
O 5.635262 -0.386391 7.935192
O 4.985656 -1.636390 0.900109
