33

Li 2.209188 1.913020 3.689002
Li 2.221397 -0.211665 5.376022
Li 4.443970 3.899689 3.583313
Li 6.632490 3.654488 5.180956
Li 4.407338 6.095611 1.871897
Li 0.023247 2.207323 2.083154
Cr 4.423587 3.865155 7.336343
Cr 4.435144 1.703568 1.493059
Cr 4.447413 -0.497333 3.192475
Cr 6.641315 5.850616 -0.291007
Cr 0.006998 4.437772 4.180917
Cr 6.629047 1.449938 3.119558
Fe 2.215289 4.151467 5.758636
Fe 2.221576 1.955122 7.452822
Fe 2.209002 6.347806 4.064449
O 0.127933 6.530709 4.212796
O 0.065269 4.258279 5.964560
O 0.178568 2.101013 7.657422
O 2.357179 6.316179 5.819900
O 2.284061 3.972778 7.535326
O 4.511751 5.934348 7.438214
O 2.146524 4.330149 3.981934
O 2.073400 1.986749 5.697370
O 4.365316 4.044649 5.552700
O 2.289550 1.758956 1.673861
O 4.572309 3.791204 1.567372
O 4.520896 1.599781 3.240551
O 2.141035 -0.057601 -0.171049
O 4.302646 1.772226 -0.257743
O 4.252017 -0.399658 1.407610
O 6.504151 3.762980 -0.365321
O 6.564702 1.619837 1.326060
O 6.555557 -0.647176 3.071477
