20

Li 1.142477 4.361614 -0.166955
Li 1.992931 1.160935 3.905987
Li 2.584369 2.142694 1.141720
Li 3.175807 3.124452 -1.622547
Li 4.026261 -0.076227 2.450394
Fe 0.000000 2.519372 -1.490688
Fe 3.549967 3.963040 2.339712
Fe 1.618771 0.322348 -0.056273
Ni 0.513468 3.456444 2.597879
Ni 4.655270 0.828943 -0.314439
O 0.251723 0.444173 5.649516
O 1.682843 3.322364 3.874487
O 0.651214 1.519578 2.623699
O 1.255848 2.295218 -0.269459
O 2.357487 4.203308 1.150565
O 2.811251 0.082079 1.132875
O 3.912889 1.990169 2.552899
O 4.517523 2.765809 -0.340260
O 3.485895 0.963023 -1.591047
O 4.917015 3.841214 -3.366076
