23

Li 1.161283 5.174821 6.097212
Li 3.170113 6.254320 5.334480
Li 1.922391 4.522143 3.627979
Li 2.535800 3.964305 1.731389
Li 0.966818 3.144035 13.093302
Li 1.763125 2.367193 10.779356
Li 3.372808 3.126406 13.234842
Li 2.417582 1.748107 8.835957
Fe 2.533306 5.369828 11.540986
Fe 0.355010 2.244225 5.334230
Fe 3.268328 4.670337 9.362467
Fe 1.799940 0.915938 0.911130
Fe 1.074778 1.606803 3.061616
O 1.788839 5.421820 1.795898
O 2.502387 6.053247 9.737972
O 0.350033 2.933786 3.363259
O 3.189650 5.523321 7.341426
O 1.025147 2.350969 1.185810
O 2.583849 4.608931 13.459326
O 0.411448 1.468563 7.264015
O 3.251636 4.007939 11.372418
O 1.146593 0.814917 4.945352
O 1.786996 1.622871 12.801888
