15

Li 10.329906 11.473517 17.124718
Li 5.164953 9.979656 12.279085
Li 5.164953 7.151060 10.220790
Fe 0.000010 2.828611 4.575443
Fe 5.164953 4.322463 9.421059
Fe 5.164953 7.151060 11.479357
Ni 10.329906 14.302114 17.924447
O -0.002603 -0.004051 0.643730
O 0.002810 3.024605 2.802704
O 5.520508 4.622347 7.980048
O 0.002603 0.004057 1.873407
O 4.808096 6.657742 9.116815
O 10.327106 11.277512 17.638885
O 4.809408 9.679781 12.461546
O 5.521810 7.644388 11.324774
