24

Li 4.792875 -1.719933 7.130806
Li 3.149583 0.611031 6.853979
Li 1.562379 2.913659 6.575157
Li 3.373844 -1.010381 2.265315
Li 1.785930 1.292738 1.988636
Li 0.141764 3.623999 1.709667
Co 2.468079 -1.233758 4.865006
Co 4.935029 -2.467214 9.730220
Ni 4.126942 0.843720 4.274088
Ni 1.623221 2.095570 -0.591109
Ni 3.311971 -0.192401 9.432360
Ni 0.808032 1.059562 4.567153
O 4.908630 0.459338 8.061877
O 3.394754 1.329752 0.418158
O 4.083009 -0.583575 5.645765
O 2.490702 1.781670 5.283419
O 2.450022 0.121552 3.556860
O 4.040285 2.307404 2.936765
O 0.848664 2.489228 3.196778
O 1.537841 0.577569 8.422123
O 3.313565 2.670749 7.801974
O 0.030717 1.442492 0.780664
O 1.621266 -0.770556 1.038771
O 0.891521 -0.405650 5.903990
