48

Li 2.390783 1.999686 6.425485
Li 4.275747 1.562124 8.867476
Li 4.187963 4.448815 4.039125
Li 7.233800 1.397508 8.407692
Li 7.105507 4.362460 4.501408
Li 10.266488 1.170493 8.589476
Li 10.084849 4.365108 4.056579
Li 10.983746 2.207859 2.328947
V 0.748389 4.652086 1.047774
V 2.252186 1.762029 2.854132
V 3.610609 4.755247 7.387394
V 5.179686 1.518066 5.420926
V 6.439166 4.297845 1.042515
V 7.990168 1.108652 2.775651
V 9.371176 4.081277 7.417568
V 10.817823 1.302344 5.464105
F 11.131224 5.616855 4.851337
F 0.482042 2.039487 3.881316
F 0.615979 1.580280 6.677105
F 1.117414 2.650318 1.425430
F 1.686014 5.881695 2.498530
F 2.265311 4.309385 6.173217
F 2.443203 4.313392 8.945592
F 3.115233 0.622377 7.622172
F 2.743606 3.511287 3.392213
F 3.328616 1.320269 4.626677
F 3.771224 1.546676 1.751112
F 4.185165 2.774780 6.927429
F 4.721477 5.490713 5.851979
F 5.265191 4.589073 2.475083
F 5.195286 5.158219 8.600482
F 5.926560 2.632851 0.219978
F 5.582513 3.220290 4.695551
F 6.413193 0.764864 3.974337
F 6.501254 1.268819 6.710479
F 6.966713 0.331560 1.224413
F 7.451207 2.982817 2.393195
F 7.980246 4.298595 6.143169
F 8.106411 4.613305 8.899495
F 8.855100 2.280849 7.945656
F 8.471770 5.271909 3.493406
F 9.287474 1.765372 4.186734
F 9.507715 1.312752 1.572849
F 9.867673 0.084792 6.948429
F 10.393174 3.252133 5.878245
F 10.887786 4.126790 2.360781
F 10.993078 3.791849 8.556879
F 0.159609 0.338937 0.270949
