63

Li 0.000000 6.580434 5.765729
Li 1.303097 6.558549 0.175351
Li 1.367212 6.440430 3.722128
Li 2.420209 0.080030 7.680040
Li 2.423764 12.902837 3.837075
Li 3.906587 12.812104 1.922910
Li 3.906587 0.159891 5.766730
Li 5.392965 0.080030 3.853419
Li 5.389410 12.902837 0.008745
Li 6.445962 6.440430 0.123692
Li 6.510077 6.558549 3.670470
U 0.000000 0.247510 1.921910
U 0.000000 12.705999 5.765729
U 3.906587 6.767088 1.922910
U 3.906587 6.220073 5.766730
W 0.074835 3.308398 -0.003717
W 0.075600 9.646343 3.843239
W 3.832018 3.153411 3.841472
W 3.831705 9.817611 -0.002885
W 3.981156 3.153411 0.004348
W 3.981468 9.817611 3.848706
W 7.738339 3.308398 3.849538
W 7.737573 9.646343 0.002582
O 0.000000 2.792505 1.921910
O 0.000000 3.357332 5.765729
O 0.000000 9.477306 1.921910
O 0.000000 10.213219 5.765729
O 0.051762 1.230634 7.487850
O 0.049770 11.693815 3.615871
O 0.030206 5.116197 0.196880
O 0.051364 7.850285 4.232350
O 1.935565 0.243307 1.923620
O 1.938519 12.717000 5.765095
O 1.920212 3.206548 3.841059
O 1.915970 9.739462 0.000844
O 1.990578 3.216278 0.003685
O 1.990117 9.745741 3.840616
O 2.022166 6.777414 1.937219
O 1.995734 6.235199 5.764003
O 3.871005 1.325518 4.172174
O 3.864880 11.643649 0.326239
O 3.859700 5.194838 3.622412
O 3.865567 7.780725 7.462320
O 3.906587 2.985036 1.922910
O 3.906587 9.292079 1.922910
O 3.906587 9.991668 5.766730
O 3.906587 3.683782 5.766730
O 3.953473 5.194838 0.223408
O 3.947606 7.780725 4.071139
O 3.942168 1.325518 7.361286
O 3.948293 11.643649 3.519582
O 5.817439 6.235199 5.769456
O 5.791007 6.777414 1.908602
O 5.822595 3.216278 3.842136
O 5.823056 9.745741 0.005205
O 5.892961 3.206548 0.004761
O 5.897203 9.739462 3.844976
O 5.877608 0.243307 1.922200
O 5.874655 12.717000 5.768364
O 7.782968 5.116197 3.648940
O 7.761809 7.850285 7.301109
O 7.761411 1.230634 4.045609
O 7.763403 11.693815 0.229950
