24

Cr 1.017479 3.770633 1.838112
Cr 0.987389 1.223110 1.850990
Cr 3.901731 2.304072 1.948652
Cr 2.029637 -0.141701 6.666421
Cr 4.913890 0.905857 6.570514
Cr 4.943980 -1.646037 6.583545
Sb 1.938650 2.457233 4.460338
Sb 3.992718 -0.273717 9.188067
O 0.985171 3.803793 5.421774
O 0.261318 2.524500 3.017837
O 2.045634 2.406545 0.901849
O 5.870940 2.172770 2.700233
O 0.060429 0.013069 7.408010
O 0.963248 1.250846 5.553690
O 2.867852 3.482826 3.052408
O 2.814464 1.253395 3.087559
O 2.005894 -0.113738 0.981760
O 3.925475 2.328586 5.528818
O 3.063516 0.886858 7.775423
O 3.116904 -1.350334 7.810844
O 3.885734 -0.308868 5.629035
O 4.946198 0.934323 0.889635
O 5.670050 -0.450125 7.754076
O 4.968120 -1.621808 1.021661
