19

La 0.059329 0.239556 2.132300
La 2.715030 3.240305 2.037159
La 2.860519 2.420086 5.663278
La 5.516219 5.420835 5.568137
Ti 0.000000 2.855934 -0.085962
Ti 0.000000 2.855934 3.898402
Ti 2.787774 -0.025738 -0.048184
O 0.464125 2.937487 5.936095
O 1.202306 4.447104 0.229744
O 0.987508 4.477795 3.522466
O 1.542793 1.634687 0.321788
O 1.579068 1.830600 3.551945
O 2.269990 0.098689 6.123502
O 3.305559 5.561702 1.576935
O 3.996481 3.829791 4.148492
O 4.032755 4.025705 7.378649
O 4.588041 1.182597 4.177971
O 4.373243 1.213288 7.470693
O 5.111423 2.722905 1.764342
