22

Li 5.526554 5.024753 7.884453
Li 2.683945 3.120457 1.283621
V 0.409012 4.036495 8.787847
V 3.251620 4.108716 4.820101
V 2.531587 1.250827 8.388202
V 5.374196 1.464243 4.420456
O 1.884809 5.055119 8.693753
O 4.727417 3.090092 4.726007
F 0.314790 0.679338 3.393814
F 1.435870 1.686705 1.583194
F 1.531023 3.966148 5.080949
F 0.737663 2.174407 8.565595
F 2.591873 3.945410 2.965749
F 1.809963 1.469613 6.640130
F 1.125110 3.926643 10.643568
F 3.580271 0.540663 4.597849
F 4.652571 1.245457 2.672384
F 3.967719 4.218568 6.675822
F 3.157399 2.035733 9.994645
F 4.278478 1.028365 8.184026
F 4.373632 4.179063 11.681780
F 5.434482 4.199801 9.566581
