64

Li 0.772912 9.251223 2.477334
Li 3.472202 9.695879 11.261338
Li 4.162250 4.821455 5.460471
Li 1.016528 4.569088 7.736930
Li -0.000326 5.066311 0.599802
Li 5.134714 9.100518 7.109743
Li 8.316526 4.598332 10.180333
Li 5.208099 4.384178 12.459450
Sb 0.023103 9.576339 9.558358
Sb 0.074062 4.838061 4.764672
Sb 4.263340 9.405510 4.141498
Sb 2.093137 2.298487 4.760770
Sb 6.301643 6.910026 4.049492
Sb 2.189758 7.144369 9.579329
Sb 6.224677 11.656056 8.904750
Sb 4.250638 4.610287 9.504739
P 1.856223 2.659778 1.520952
P 2.365763 6.745121 2.638069
P 1.781969 7.516644 6.341699
P 5.983806 12.093336 5.675421
P 2.304002 1.905643 8.058528
P 6.529160 6.511317 7.382091
P 6.018532 7.279030 11.080616
P 6.560547 11.290322 12.201240
O 0.401095 3.141086 0.564524
O 2.074954 6.296024 1.253865
O 1.594692 1.216095 1.554623
O 0.899783 6.126345 3.148197
O 2.662230 8.202031 2.515046
O 1.988056 3.051185 2.889335
O 2.238416 10.290216 3.789969
O 5.053866 10.551696 2.365455
O 0.352203 8.022906 5.389393
O 3.821402 6.294828 3.617604
O 2.013502 3.901199 5.140247
O 1.423824 6.078227 6.400066
O 3.300297 8.160036 5.898327
O 6.371153 5.296574 3.700580
O 6.255663 8.503015 4.488740
O 4.538795 3.017350 5.369932
O 5.583497 10.646455 5.720751
O 1.970458 1.466460 6.651767
O 7.472957 12.728476 5.214699
O 2.010682 7.951148 7.712079
O 6.236760 6.086697 5.981291
O 0.845502 1.195576 8.554337
O 6.248994 12.516439 7.054430
O 2.543292 3.338699 7.980622
O 3.793947 11.062328 8.339819
O 2.213246 5.519440 9.223006
O 1.998875 8.694027 10.007907
O 5.060242 5.811209 7.862361
O 6.779278 7.944060 7.323009
O 6.439048 10.109587 8.497890
O 4.597762 7.759474 10.089191
O 7.999575 6.043541 8.322114
O 3.360402 3.361111 11.379629
O 6.171559 3.670622 9.943735
O 6.342862 10.881760 10.820412
O 5.676981 5.832078 11.136046
O 7.542057 7.936742 10.676032
O 6.723030 12.716327 12.156740
O 6.152749 7.691628 12.446423
O 8.023925 10.881954 13.191386
