28

Li 5.548972 -0.000007 0.000010
Li 0.000000 4.760022 2.243877
Li 2.774528 0.000001 0.000012
Li 2.774500 4.760023 2.243879
Mn 1.387255 2.584406 4.420142
Mn 1.387272 7.344352 2.311392
Mn 4.161744 2.175609 2.176304
Mn 4.161750 6.935631 0.067487
B 1.387250 0.869244 1.954362
B 1.387244 5.629180 0.289653
B 4.161750 3.890847 4.198138
B 4.161755 8.650822 2.533334
O 0.227936 1.605654 1.217584
O 0.227936 6.365648 1.026244
O 1.387250 4.274645 0.808776
O 1.387255 0.984569 3.365802
O 1.387250 9.034630 1.435099
O 1.387244 5.744553 3.365736
O 2.546569 1.605655 1.217578
O 2.546558 6.365649 1.026233
O 3.002453 7.914354 3.270149
O 3.002436 3.154360 3.461476
O 4.161744 5.245363 3.678924
O 4.161750 0.485341 3.052651
O 4.161750 3.775474 1.122010
O 4.161744 8.535401 1.121912
O 5.321052 3.154361 3.461475
O 5.321052 7.914355 3.270161
