28

Li 2.025587 2.454314 8.637991
Li 5.860004 2.143188 9.617106
Li 5.809953 2.147064 4.880492
Li 3.957669 -0.277463 3.818278
Ti 1.911180 2.418407 4.799057
Ti 3.931115 -0.272942 9.505246
Mn 3.868180 2.281612 2.202734
Mn 4.852021 0.906745 6.916711
Mn 4.885173 -1.602682 6.813247
Cr 0.999449 3.753880 2.178638
Cr 0.998920 1.236083 2.090467
Cr 1.986911 -0.152110 6.809334
O 0.954927 3.775922 5.808553
O 0.249850 2.535512 3.331772
O 2.027706 2.433516 1.142330
O 5.818446 2.144090 3.111831
O 5.784754 2.131575 7.833395
O 0.936502 1.200946 5.684508
O 2.865996 3.468540 3.387467
O 2.854045 1.235043 3.293807
O 1.969449 -0.120748 0.904394
O 3.835057 2.163388 5.759066
O 3.052929 0.925336 8.019651
O 3.104735 -1.336842 7.999346
O 3.984065 -0.260730 5.846648
O 4.847196 0.967832 1.072073
O 5.671651 -0.252628 8.149834
O 4.872036 -1.632144 0.950059
