19

Na 4.643687 4.155803 3.738605
Fe 0.693543 0.620677 3.809626
Fe 5.960262 5.334055 1.166870
Si 1.357969 3.932230 4.205244
Si 2.499755 4.971019 1.611506
Si 4.088604 0.942105 3.341020
Si 5.247439 1.962225 0.797268
O 0.237093 5.268021 4.118919
O 1.233394 6.163300 1.516478
O 0.633973 2.481304 4.320441
O 2.311794 4.025103 2.940657
O 4.063830 5.471170 1.758303
O 2.395814 4.051332 0.355899
O 4.277853 1.872211 4.585056
O 2.557563 0.374917 3.266368
O 4.312662 1.952327 2.071551
O 5.907381 3.452428 0.610485
O 5.318425 -0.296187 3.425387
O 6.318397 0.595072 0.895809
