28

Li 1.884604 2.408516 8.254269
Li 5.811956 2.192427 8.919884
Li 0.028713 -0.001569 4.693475
Li 3.902114 -0.214922 3.473902
Ti 2.019283 2.401433 4.483048
Ti 3.894341 -0.214439 9.148361
Mn 1.024799 3.684796 1.845750
Mn 1.024964 1.226912 1.929310
Mn 2.027314 -0.111582 6.656340
Ni 3.873770 2.299110 1.672875
Ni 4.872809 0.969652 6.390808
Ni 4.872909 -1.506038 6.474873
O 1.099920 3.711641 5.430739
O 0.225515 2.499565 3.048350
O 1.839764 2.411402 0.798724
O 0.089346 -0.005270 2.904332
O 0.064348 -0.002757 7.604281
O 1.101118 1.191591 5.515877
O 2.744397 3.503346 2.932527
O 2.744896 1.219302 3.009535
O 1.916435 -0.105397 0.843813
O 3.991412 2.293353 5.282227
O 2.949095 0.931426 7.760972
O 2.948555 -1.256358 7.835226
O 3.871633 -0.213862 5.545045
O 4.957793 0.948049 0.496006
O 5.579354 -0.307604 7.550190
O 4.957399 -1.494476 0.579357
