26

La 2.324053 0.369614 10.030306
La 0.369614 2.324053 2.727827
La 3.670887 1.716448 3.651240
La 4.392289 0.995046 6.346645
La 1.716448 3.670887 9.106893
La 0.995046 4.392289 6.411489
La 3.045455 5.035548 2.661246
La 5.035548 3.045455 10.096888
Mn 0.000000 0.000000 0.000000
Mn 4.040501 4.040501 6.379067
O 5.356029 5.356029 6.379067
O 1.850377 0.843290 8.260490
O 1.315528 1.315528 0.000000
O 2.724973 5.356029 7.694595
O 5.356029 2.724973 5.063539
O 0.843290 1.850377 4.497643
O 2.190124 3.197211 10.876710
O 1.315528 4.071807 1.378140
O 2.724973 2.724973 6.379067
O 3.197211 2.190124 1.881424
O 0.438976 4.948359 4.333833
O 4.948359 0.438976 8.424300
O 4.071807 1.315528 -1.378140
O 4.071807 4.071807 0.000000
O 3.601525 4.479478 4.738901
O 4.479478 3.601525 8.019232
