104

Li 0.316794 2.055766 5.218221
Li 0.316794 2.613183 12.198521
Li 2.119922 8.912697 5.198802
Li 2.119922 5.094150 12.179102
Li 2.608058 0.425201 12.179102
Li 2.608058 4.243748 5.198802
Li 4.411186 6.724716 5.218221
Li 4.411186 7.282132 12.198521
Li 5.044774 2.055766 1.762079
Li 5.044774 2.613183 8.742379
Li 6.847902 5.094150 8.761798
Li 6.847902 8.912697 1.781498
Li 7.336038 4.243748 1.781498
Li 7.336038 0.425201 8.761798
Li 9.139166 7.282132 8.742379
Li 9.139166 6.724716 1.762079
V 1.314010 0.955837 1.712868
V 1.314010 3.713113 8.693168
V 3.413970 5.624786 1.712868
V 3.413970 8.382062 8.693168
V 6.041990 0.955837 5.267432
V 6.041990 3.713113 12.247732
V 8.141950 5.624786 5.267432
V 8.141950 8.382062 12.247732
S 0.705509 0.655119 10.163443
S 0.705509 4.013830 3.183142
S 1.518249 6.421635 6.847339
S 1.518249 7.585212 13.827639
S 3.209731 1.752686 6.847339
S 3.209731 2.916263 13.827639
S 4.022471 8.682779 3.183142
S 4.022471 5.324068 10.163443
S 5.433489 4.013830 3.797158
S 5.433489 0.655119 10.777458
S 6.246229 6.421635 0.132961
S 6.246229 7.585212 7.113261
S 7.937711 1.752686 0.132961
S 7.937711 2.916263 7.113261
S 8.750451 5.324068 10.777458
S 8.750451 8.682779 3.797158
O 0.045389 6.542374 6.661915
O 0.045389 7.464473 13.642215
O 0.161914 9.309072 4.819660
O 0.161914 4.697775 11.799960
O 0.245420 4.305023 4.587677
O 0.245420 0.363926 11.567977
O 0.691287 2.149500 10.093067
O 0.691287 2.519449 3.112767
O 1.769711 6.831205 1.130571
O 1.769711 7.175643 8.110871
O 1.936146 9.013201 0.037149
O 1.936146 4.993647 7.017449
O 2.101247 0.133467 10.084691
O 2.101247 4.535483 3.104391
O 2.280863 6.955903 5.689126
O 2.280863 7.050944 12.669426
O 2.447117 2.286954 5.689126
O 2.447117 2.381995 12.669426
O 2.626733 9.204432 3.104391
O 2.626733 4.802416 10.084691
O 2.791834 0.324697 7.017449
O 2.791834 4.344252 0.037149
O 2.958269 2.162256 1.130571
O 2.958269 2.506693 8.110871
O 4.036693 7.188398 3.112767
O 4.036693 6.818449 10.093067
O 4.482560 5.032875 11.567977
O 4.482560 8.973972 4.587677
O 4.566066 4.640123 4.819660
O 4.566066 0.028826 11.799960
O 4.682591 1.873425 6.661915
O 4.682591 2.795524 13.642215
O 4.773369 6.542374 0.318385
O 4.773369 7.464473 7.298686
O 4.889894 4.697775 9.140940
O 4.889894 9.309072 2.160640
O 4.973400 4.305023 2.392623
O 4.973400 0.363926 9.372924
O 5.419267 2.519449 3.867533
O 5.419267 2.149500 10.847833
O 6.497691 6.831205 5.849729
O 6.497691 7.175643 12.830029
O 6.664126 4.993647 13.923451
O 6.664126 9.013201 6.943151
O 6.829227 4.535483 3.875909
O 6.829227 0.133467 10.856209
O 7.008843 6.955903 1.291174
O 7.008843 7.050944 8.271474
O 7.175097 2.286954 1.291174
O 7.175097 2.381995 8.271474
O 7.354713 4.802416 10.856209
O 7.354713 9.204432 3.875909
O 7.519814 4.344252 6.943151
O 7.519814 0.324697 13.923451
O 7.686249 2.162256 5.849729
O 7.686249 2.506693 12.830029
O 8.764672 6.818449 10.847833
O 8.764672 7.188398 3.867533
O 9.210540 5.032875 9.372924
O 9.210540 8.973972 2.392623
O 9.294045 0.028826 9.140940
O 9.294045 4.640123 2.160640
O 9.410571 1.873425 0.318385
O 9.410571 2.795524 7.298686
