28

Li 0.025457 0.697890 7.224389
Li 0.000000 2.115923 1.326282
Li 5.243033 5.280256 6.853657
Li 0.000000 4.937153 -0.293909
V 2.530872 1.228414 9.307823
V 2.787927 1.926011 6.400979
V 2.488856 2.662229 3.412133
V 2.779635 3.315917 0.500209
V 2.480563 4.052136 7.677068
V 2.737618 4.749733 4.770223
Cr 2.548116 5.456495 1.781480
Cr 2.720375 6.164112 -1.109521
O 1.471136 0.985905 3.169755
O 1.589930 1.739842 0.347531
O 1.473997 2.305902 7.504350
O 1.571575 3.156340 4.634297
O 1.492980 3.727589 1.631088
O 1.606368 4.484451 -1.127942
O 1.447813 5.219860 5.801495
O 1.619197 5.904148 3.111612
O 3.662123 1.493696 5.040284
O 3.775511 2.250558 2.281254
O 3.696916 2.821806 9.443749
O 3.794493 3.672244 6.573697
O 3.678560 4.238305 3.564811
O 3.797354 4.992242 0.742587
O 3.649294 5.716459 7.726051
O 3.820678 6.400747 5.036168
