60

Li 0.010655 7.760869 9.697031
Li 0.006616 2.511390 3.279050
Li 1.565128 2.561470 5.626603
Li 1.439567 7.677010 2.505500
Li 3.040805 0.036211 9.758007
Li 2.994040 2.477610 8.141444
Li 3.019658 5.081799 6.503307
Li 2.998079 7.727089 4.853053
Li 4.491286 7.701426 7.378277
Li 4.522799 2.493974 10.591963
Li 5.973280 10.159188 8.212232
Li 5.994427 5.113600 1.760560
Mn -0.000150 5.120664 6.454259
Mn 0.025396 10.239543 3.211011
Mn 1.502348 5.119240 8.919237
Mn 1.502348 -0.010770 2.459534
Mn 3.004845 5.117815 1.677844
Mn 2.979299 -0.001064 4.921091
Mn 4.507043 -0.032310 7.378603
Mn 4.507043 -0.032310 2.525417
Cr 1.502348 -0.010770 7.312720
Cr 1.502348 5.119240 4.066051
Cr 3.007598 7.686669 9.777179
Cr 3.021251 2.554088 3.242931
Cr 4.507043 5.097700 8.985120
Cr 4.507043 5.097700 4.131934
Cr -0.002903 2.551811 8.061296
Cr 5.992834 7.641311 5.020936
O 0.018100 4.030683 4.869839
O 0.126648 9.091942 11.397090
O 5.966351 1.010522 1.765645
O 1.383740 3.928871 7.332928
O 1.365033 1.261985 8.845322
O 1.639662 8.976494 8.993153
O 1.335226 6.297313 5.655533
O 1.620955 6.309608 10.505547
O 1.457391 8.925485 4.236374
O 1.547304 1.312994 3.895729
O 1.669469 3.941166 2.476570
O 2.878047 1.146538 6.441385
O 2.991096 4.030547 9.757979
O 3.047734 9.184877 6.498223
O 3.018871 9.102594 11.239702
O 2.986565 6.254911 8.296610
O 2.970466 3.913064 4.749872
O 2.986595 6.207796 3.262264
O 3.209988 1.193273 1.753891
O 4.464063 8.906301 9.088196
O 4.341953 6.281556 10.556282
O 4.672133 3.913844 7.413958
O 4.550022 1.289098 8.882044
O 4.396758 1.205675 3.994068
O 4.384307 3.919078 2.497041
O 4.629778 6.276322 5.766827
O 4.617327 8.989725 4.269799
O 0.018130 3.983569 9.541865
O 5.995214 1.092806 6.730538
O 0.013599 6.207932 8.080496
O 5.804097 9.002127 6.509977
O 0.034229 6.325416 3.382231
