24

Li 1.699337 3.347715 1.201126
Li 1.699337 6.288919 1.201126
Li 6.928139 3.076708 4.052634
Li 6.928139 0.135504 4.052634
Co 3.031885 4.818317 4.002124
Co 5.595591 1.606106 1.251635
C 0.517036 4.818317 3.672157
C 8.110440 1.606106 1.581602
S 3.622712 1.606106 3.685399
S 5.004764 4.818317 1.568360
O 0.757725 1.606106 1.444320
O 1.111504 4.818317 4.833619
O 1.316984 4.818317 2.620386
O 2.864408 0.421815 4.168842
O 2.864408 2.790397 4.168842
O 3.617233 4.818317 1.032364
O 3.727018 1.606106 2.189655
O 4.900458 4.818317 3.064105
O 5.010243 1.606106 4.221396
O 5.763067 3.634026 1.084918
O 5.763067 6.002608 1.084918
O 7.310492 1.606106 2.633374
O 7.515972 1.606106 0.420140
O 7.869750 4.818317 3.809439
