40

Li 2.534136 6.007733 4.789172
Li 2.534136 8.740695 0.945851
Li 4.865018 1.091590 1.944259
Li 4.865018 3.824552 -1.899061
Co 3.661242 1.376077 4.798406
Co 3.737912 6.292220 1.935025
Co 3.661242 3.540065 0.955086
Co 3.737912 8.456207 -1.908296
C 0.758990 9.737924 6.113443
C 0.758990 5.010503 2.270122
C 3.884430 3.775391 3.441663
C 3.514724 8.691533 3.291768
C 3.884430 1.140752 -0.401657
C 3.514724 6.056894 -0.551553
C 6.640164 4.821782 0.619988
C 6.640164 0.094360 -3.223332
O 0.701255 4.888927 5.067538
O 1.592749 0.920213 5.547328
O 1.521399 8.664780 6.291666
O 0.701255 0.027216 1.224217
O 1.592749 3.995929 1.704007
O 1.521399 6.083648 2.448346
O 3.838770 3.297247 4.488067
O 3.564557 0.137917 3.380428
O 3.425816 7.870243 4.147576
O 3.973331 2.954100 2.585860
O 3.834597 5.054050 3.353003
O 3.560384 8.213389 2.245364
O 3.838770 1.618896 0.644746
O 3.564557 4.778225 -0.462893
O 3.425816 6.878185 0.304255
O 3.973331 1.962042 -1.257461
O 3.834597 9.694377 -0.490317
O 3.560384 6.535038 -1.597957
O 5.877755 3.748637 0.441765
O 5.806405 5.836356 1.186103
O 6.697899 9.805069 1.665893
O 5.877755 1.167505 -3.401556
O 5.806405 8.912072 -2.657218
O 6.697899 4.943358 -2.177428
