28

Li 0.863613 4.315536 7.849644
Li 2.145041 1.652191 3.486292
Li 5.046365 0.937268 6.569857
Li 6.327793 3.600613 2.206505
Fe 8.293963 3.544077 -0.438241
Fe 2.842339 4.285106 5.231054
Fe 4.111210 1.708727 0.841546
Fe 7.025091 0.967698 3.951267
P 1.908381 1.632356 6.575604
P 3.049293 4.275746 2.104297
P 6.091133 3.620448 5.295816
P 7.232045 0.977058 0.824510
O 0.620101 0.911776 7.197503
O 0.199793 1.666037 2.810488
O 1.590860 3.146913 6.411748
O 2.266065 1.012410 5.233691
O 1.803686 4.037851 1.213111
O 2.633168 3.624324 3.417839
O 4.802854 4.341027 5.917716
O 3.337267 0.539773 2.291449
O 3.195071 1.400571 -0.856102
O 4.382546 3.586767 1.530700
O 5.773612 2.105891 5.131960
O 6.448817 4.240394 3.953903
O 5.986439 1.214953 -0.066677
O 6.815920 1.628479 2.138051
O 7.520020 4.713031 1.011661
O 7.377823 3.852233 -2.135889
