28

Nb 1.182736 1.639434 5.570869
Nb 2.648460 4.918302 1.807333
Nb 5.013932 1.639434 5.719739
Nb 6.479656 4.918302 1.956203
P 0.933233 4.918302 4.690984
P 2.897963 1.639434 0.927448
P 4.764429 4.918302 6.599624
P 6.729159 1.639434 2.836088
O 0.364967 1.639434 3.686926
O 0.906461 4.918302 1.313978
O 0.976066 3.664378 5.580368
O 0.976066 6.172227 5.580368
O 1.647705 1.639434 7.517972
O 2.183491 4.918302 3.754436
O 2.855130 0.385510 1.816832
O 2.855130 2.893359 1.816832
O 2.924735 1.639434 5.077515
O 3.466229 4.918302 7.450462
O 4.196163 1.639434 0.076611
O 4.737657 4.918302 2.449558
O 4.807262 3.664378 5.710240
O 4.807262 6.172227 5.710240
O 5.478901 1.639434 3.772636
O 6.014686 4.918302 0.009100
O 6.686326 0.385510 1.946704
O 6.686326 2.893359 1.946704
O 6.755931 1.639434 6.213094
O 7.297425 4.918302 3.840147
