28

Li 1.085127 5.075772 8.025644
Li 1.085127 3.439472 3.688034
Li 3.162038 5.132450 5.340071
Li 3.162038 3.382794 1.002462
Li 5.247190 2.294035 5.239202
Li 5.247190 0.544380 0.901593
Li 7.324102 2.237358 2.553629
Li 7.324102 0.601057 -1.783980
Fe 2.179773 2.285043 6.676078
Fe 2.179773 0.553372 2.338469
Fe 6.229456 5.123457 3.903195
Fe 6.229456 3.391786 -0.434414
F 0.779502 2.688592 5.361251
F 1.970526 3.389890 -0.435691
F 2.209643 0.323642 6.762115
F 0.779502 0.149823 1.023642
F 1.970526 5.125354 3.901918
F 3.690600 3.353439 5.764914
F 2.209643 2.514773 2.424506
F 3.690600 5.161804 1.427305
F 4.718628 0.515025 4.814359
F 6.199586 3.162056 3.817157
F 4.718628 2.323390 0.476750
F 6.438702 0.551476 2.339746
F 7.629727 5.527006 5.218022
F 6.199586 5.353187 -0.520452
F 6.438702 2.286939 6.677355
F 7.629727 2.988237 0.880413
