28

Li 1.931379 2.375646 8.425778
Li 5.769042 2.100158 9.367288
Li 0.006943 4.994033 4.660890
Li 3.844605 -0.257166 3.725305
Nb 1.924495 2.371598 4.667708
Nb 3.851490 -0.262149 9.373828
Co 0.981669 3.664882 2.026381
Co 0.980612 1.210273 2.026021
Co 3.813975 2.245928 2.027404
Co 1.962010 -0.131503 6.733248
Co 4.794316 0.903240 6.732637
Co 4.795373 -1.551512 6.732278
O 0.957225 3.704781 5.636766
O 0.219141 2.490801 3.139903
O 1.923848 2.373369 1.053572
O 0.003183 0.002405 2.895139
O 5.772802 -2.891980 7.601539
O 0.949953 1.166197 5.624240
O 2.780732 3.425674 3.138506
O 2.778913 1.209157 3.139979
O 1.894777 -0.128815 0.925822
O 3.881207 2.239495 5.626579
O 2.995252 0.908082 7.844501
O 2.997072 -1.308687 7.845974
O 3.852137 -0.260466 5.759691
O 4.818759 0.939818 0.936435
O 5.556844 -0.374288 7.846271
O 4.826031 -1.599753 0.923909
