28

Li 0.020369 10.720310 0.014332
Li 0.020369 10.720310 3.186210
Li 2.376140 5.284049 3.169010
Li 2.376140 5.284049 0.031532
Mn 0.150722 7.803682 4.800812
Mn 2.270845 2.117280 4.800812
Mn 2.570872 8.330218 1.600271
Sb 4.382675 2.872904 1.600271
P 0.406853 6.488553 1.600271
P 1.988936 0.744501 1.600271
P 2.854126 9.604984 4.800812
P 4.393061 4.238131 4.800812
O 0.933241 4.990765 1.600271
O 1.052824 7.147657 0.345326
O 1.052824 7.147657 2.855216
O 1.123208 4.313010 4.800812
O 1.312325 9.633481 4.800812
O 1.462883 1.459325 0.297087
O 1.462883 1.459325 2.903454
O 1.342778 10.115646 1.600271
O 3.458634 0.254369 4.800812
O 3.465224 8.838485 3.556531
O 3.465224 8.838485 6.045093
O 3.544055 0.604375 1.600271
O 3.663398 6.313193 1.600271
O 3.689842 3.516831 3.610646
O 3.689842 3.516831 5.990978
O 3.862397 5.705631 4.800812
