38

Li 1.616864 -0.344764 6.131190
Li 6.255188 5.654403 -2.425075
V 2.255713 4.998344 2.036773
V 1.619006 3.063905 -1.046407
V 6.253047 2.245734 4.752522
V 5.616340 0.311294 1.669342
C 0.043721 5.587818 0.010793
C 0.438898 2.428762 1.566734
C 3.683058 3.739467 3.636667
C 3.636888 5.408777 -0.722268
C 4.235164 -0.099138 4.428382
C 4.188995 1.570171 0.069448
C 7.433154 2.880876 2.139381
C 7.828331 -0.278180 3.695321
O 0.590845 5.758825 3.116806
O 0.890148 6.036983 0.733341
O 0.083625 4.388458 -0.333884
O 1.009008 1.415912 5.996065
O 1.231126 3.397294 1.829081
O 0.664708 1.946338 0.517420
O 2.407746 4.208251 3.894748
O 2.837662 4.755110 -1.374069
O 3.538094 5.215104 0.494119
O 4.146997 4.035391 2.461078
O 4.334108 3.069910 4.478764
O 3.240066 -0.936028 5.025145
O 4.631987 6.245666 -1.319030
O 3.537944 2.239729 -0.772649
O 3.725055 1.274248 1.245037
O 4.333959 0.094534 3.211988
O 5.034390 0.554529 5.080183
O 5.464307 1.101388 -0.188633
O 7.207344 3.363301 3.188695
O 6.640927 1.912345 1.877034
O 6.863044 3.893727 -2.289951
O 7.788428 0.921181 4.039998
O 6.981904 -0.727344 2.972774
O 7.281208 -0.449186 0.589309
