33

Fe 3.193695 4.430350 5.203639
Fe 5.770408 8.004810 9.402000
Fe 7.631624 10.586721 12.434567
S 0.352054 5.740332 5.428718
S 4.188827 2.622027 7.612402
S 6.671249 7.191303 5.227336
S 2.236208 5.262714 9.364638
S 4.835868 9.846656 6.982901
S 8.611843 6.647634 9.207014
O 1.023854 2.739399 4.917957
O 2.610994 5.277713 3.613932
O 0.044738 7.054331 4.896765
O 4.603141 3.410770 4.890658
O 0.212228 5.474055 6.591762
O 2.081631 5.709321 5.484913
O 3.479213 3.664878 6.804216
O 3.040050 1.727772 8.269124
O 5.476659 5.937215 5.694797
O 0.427236 5.298350 8.871240
O 2.455843 4.042265 9.078567
O 3.220454 9.024967 6.282440
O 5.874123 3.443019 8.332005
O 6.444422 8.465832 5.493217
O 8.457893 7.230104 5.641149
O 3.412164 6.584745 8.924879
O 6.089149 10.693876 6.329384
O 5.639701 8.866993 7.832875
O 6.895251 6.670378 9.225641
O 8.704071 6.881464 8.069609
O 4.525018 9.181557 9.631378
O 8.792641 5.244719 9.743097
O 6.097515 7.151658 10.959878
O 8.019583 9.527452 9.783229
