16

Li 0.000000 0.000000 1.340293
Li 0.000000 3.001492 3.516208
Li 5.215620 4.265412 8.213515
Li 5.215620 7.266904 10.389431
Mn 0.000000 3.001492 2.175915
Mn 5.215620 4.265412 6.873222
Mn 5.215620 7.266904 9.049138
W 0.000000 0.000000 0.000000
O 10.431241 14.533808 18.798222
O 0.000000 3.337869 3.001897
O 5.800135 4.743437 8.225631
O 0.000000 0.000000 1.980639
O 4.631106 6.452502 8.917541
O 10.431241 11.195939 17.776965
O 4.631106 9.790371 12.553230
O 5.800135 8.081306 11.861320
