20

Li 2.982057 0.546791 1.784679
Li 7.155109 1.531413 0.976742
Co 8.337759 5.166545 0.684580
Co 4.165583 2.756684 3.880539
C 1.820086 3.422141 2.652256
C 2.379345 0.474936 3.954006
C 5.991978 4.943040 4.201596
C 6.551963 1.718024 3.141067
O 0.472262 3.918708 2.427359
O 1.915244 0.299706 0.248008
O 1.637188 0.269182 3.043643
O 2.567601 2.883119 1.904876
O 2.275499 3.497173 3.744516
O 3.689490 0.814373 3.936987
O 4.644321 4.700063 3.987978
O 5.808954 2.064382 2.222191
O 6.088146 1.980006 4.159231
O 6.739868 5.341204 3.439109
O 6.447391 4.782246 5.297273
O 7.861574 1.131610 3.138224
