20

Li 1.613133 2.064197 9.317589
Li 5.086044 -2.463509 2.198419
Li 0.070481 0.050546 7.240725
Li 1.755775 2.130282 5.493001
Li 3.390109 -0.179186 0.473432
Li 3.535058 -0.270206 4.295358
Mn 1.712558 2.114798 2.584049
Mn 3.439409 -0.205156 7.201662
F 0.213911 2.900368 3.781968
F 1.647995 3.463531 1.559917
F 0.055930 1.489198 1.334499
F 1.726094 0.751825 3.590847
F 3.394817 2.669070 3.848129
F 1.762770 0.554048 8.488449
F 3.250764 1.375482 1.396153
F 1.895589 -0.760940 6.032716
F 3.499923 1.136455 6.175782
F 4.939627 0.404688 8.378871
F 3.427871 -1.563576 8.205800
F 5.091257 -1.029678 5.928483
