24

Li 1.066965 3.345298 1.645241
Li 1.979845 1.184427 0.000000
Li 2.868629 5.286480 1.645241
Li 3.781509 7.447351 0.000000
Li 5.915439 0.756755 0.000000
Li 6.828319 2.917626 1.645241
Li 7.717103 7.019680 0.000000
Li 8.629983 4.858808 1.645241
Co 0.956517 7.119852 1.645241
Co 3.891957 3.017798 0.000000
Co 5.804991 5.186308 0.000000
Co 8.740432 1.084255 1.645241
O 0.877845 0.806267 1.645241
O 0.826219 5.407893 1.645241
O 2.163496 3.134576 0.000000
O 2.684978 7.236629 1.645241
O 4.022255 1.305839 0.000000
O 3.970629 4.908320 0.000000
O 5.726319 3.295786 0.000000
O 5.674693 6.898267 0.000000
O 7.011970 0.967477 1.645241
O 7.533452 5.069531 0.000000
O 8.870730 2.796214 1.645241
O 8.819103 7.397840 1.645241
