36

Li 0.059765 5.013195 2.029468
Li 1.501270 5.556340 4.570717
Li 2.939439 6.114022 2.091515
Li 1.474019 3.065960 0.258965
Li 4.343779 4.182306 0.287164
Li 1.437951 0.537461 2.556173
Li 2.898902 1.095745 0.066235
Li 4.314332 1.613207 2.618446
Li 5.797569 2.181521 0.127658
Li 7.233951 2.706676 2.679482
Li 4.363721 -0.873345 4.915362
Li 7.280631 0.176107 5.010488
Li 5.803022 -2.817850 3.145221
Li 7.247664 -2.280216 0.666027
Li 8.706838 -1.752579 3.206921
Cu 8.706655 3.258305 0.186285
Cu 2.934020 3.643928 2.796674
Cu 5.862238 -0.349157 2.440608
F 0.780391 6.507411 2.894059
F 0.602439 4.109043 3.674600
F 2.169476 4.623125 1.048934
F 3.653906 5.286939 3.736710
F 0.751537 1.638506 4.298473
F 2.173972 1.966274 1.775656
F 3.636613 2.606032 4.479564
F 2.311483 -0.490188 0.817731
F 5.196759 3.111743 1.835670
F 3.498117 0.160399 3.397038
F 6.389622 3.751284 4.409448
F 5.066148 0.656508 0.758200
F 6.536281 1.283491 3.465948
F 7.953951 1.619892 0.947262
F 5.071419 -1.985266 1.496758
F 6.554585 -1.357289 4.186936
F 8.164338 -0.862928 1.565518
F 7.932223 -3.244929 2.340697
