20

Li 0.753878 3.922399 7.325850
Li 4.547979 -1.653259 6.404207
Li 4.620892 0.804212 11.795802
Mn 0.660871 1.488752 1.698859
Mn 2.065163 3.595635 4.503978
Mn 1.915108 0.944486 7.717573
Mn 3.482527 1.332410 5.857580
Mn 3.576746 -1.207826 9.379656
O 4.041211 -0.889779 2.576605
F 0.350986 2.515518 7.673439
F 0.225426 -0.009048 2.186501
F 2.431149 3.181031 6.426207
F 2.911706 1.642722 3.816140
F 1.328742 0.697031 5.416884
F 1.263699 3.310205 11.002929
F 4.092846 1.577957 8.166435
F 2.449867 0.757966 9.786342
F 3.048358 -0.880686 7.345508
F 5.171792 -0.191498 5.996987
F 5.191355 2.277385 11.422544
