12

Li 2.559043 2.974625 3.463245
Li 7.726171 6.128498 6.616580
Li 12.746144 9.197176 9.686335
Cr 0.122511 2.878661 3.849007
Cr 4.995560 3.070579 3.077473
Ni 10.236157 6.250953 6.250953
O 3.576752 2.937684 3.198437
O 8.875942 6.159254 6.414987
O 1.541319 3.011557 3.728044
O 14.238237 9.394095 9.636063
O 6.234062 5.931571 6.666842
O 11.596373 9.166420 9.887928
