12

Mn 3.100632 4.235522 2.433007
Mn 3.100632 1.550316 2.430966
Mn 0.000000 2.685205 2.433007
Mn 0.000000 0.000000 0.000000
O 4.132423 5.649516 1.679837
O 2.068841 2.821527 3.186176
F 5.191239 7.094504 3.611439
F 5.192139 4.343907 3.610311
F 2.016384 5.507077 3.611439
F 4.184880 2.963967 1.254574
F 1.009126 4.127136 1.255702
F 1.010025 1.376539 1.254574
