46

Li 0.121381 1.525263 4.498943
Li 1.137387 5.276526 -0.413271
Li 1.339716 8.061372 -0.847669
Li 1.317285 2.125986 0.098044
Li 1.937105 1.075896 2.649705
Li 2.593990 0.009264 5.101180
Li 2.588080 5.692645 4.317276
Li 3.735272 0.612140 0.617228
Li 3.791664 3.696728 0.201842
Li 4.434528 5.377422 2.245621
Li 5.008188 4.191698 4.884339
Li 0.018018 7.204766 3.587582
Mn 0.639922 3.235623 6.880908
Mn 0.626008 0.314216 7.345559
Mn 0.609147 6.234075 6.491934
Mn 3.118785 7.605476 6.695285
Mn 3.177743 4.668487 7.091343
Mn 3.158153 1.682617 7.530709
Mn 1.902327 3.992366 2.173907
Mn 1.952216 6.936190 1.709731
Mn 4.416150 2.429741 2.770060
Mn 4.479217 8.298120 1.881612
O 0.179355 0.976616 1.220989
O 0.362347 3.786625 0.835766
O 0.439430 6.958331 0.433154
O 0.840643 2.833397 3.226808
O 0.953832 8.480725 2.425898
O 1.116341 5.637564 2.873218
O 1.565135 7.430906 5.375967
O 1.599993 1.458764 6.251223
O 1.564942 4.703683 5.838090
O 2.681171 5.253244 1.018826
O 2.223699 0.597409 8.755572
O 2.244689 3.330173 8.136056
O 2.076549 6.455440 7.783498
O 2.866040 2.452545 1.459270
O 2.915051 8.151859 0.649790
O 3.470024 4.000714 3.418810
O 3.491688 7.128316 3.012532
O 3.695666 1.062643 3.887629
O 4.213035 2.817453 6.443488
O 3.955497 0.063856 6.846849
O 4.185694 5.818581 5.946105
O 4.742893 4.798290 8.383197
O 4.780664 7.682011 7.901930
O 4.650705 1.802975 8.837965
