15

Li 4.075775 -0.343719 5.218568
Li 1.819906 2.647693 3.521557
Li 1.551052 0.286863 4.180555
Li 3.909124 0.528522 2.797630
Li 3.113002 -0.482522 1.006544
Li 0.433051 3.357943 0.153712
Li 2.231237 1.342787 -0.433933
Co 3.820555 -1.930053 3.431889
Co 5.034450 2.304349 4.130933
O 1.857284 -0.514581 6.022692
O 3.327812 1.384244 4.270712
O 0.039847 1.678160 3.477002
O 2.319995 -0.832616 2.844870
O 3.718420 1.348164 1.020893
O 0.006105 1.774054 -0.084971
