36

Mn 1.277224 1.731231 2.033464
Mn 3.020729 4.094489 4.809293
Mn 5.535553 7.503243 8.813136
Nb 7.306978 9.904346 11.633416
Cr 0.023596 0.031984 0.037567
Cr 4.293715 5.819976 6.836010
P 6.404493 6.382229 4.509116
P 2.178425 5.163091 9.113780
P 4.691793 9.360361 6.345376
P 8.104033 5.773607 8.381301
P 0.462797 5.852571 5.192090
P 3.790473 2.211413 7.266982
O 0.810301 2.804367 4.860509
O 2.750246 5.212537 3.242612
O 0.599373 7.093054 4.239696
O 4.438485 2.825497 4.632113
O 8.452025 10.260688 10.362742
O 2.143407 5.565425 5.668789
O 2.112842 1.532902 7.619754
O 3.823255 3.704987 6.730159
O 1.497629 3.744087 8.736933
O 5.168246 5.822555 5.328904
O 0.804838 6.067470 8.825323
O 3.446753 9.084990 5.288310
O 5.198828 9.907762 10.775953
O 7.741127 5.543174 4.783282
O 3.437215 5.906838 8.317524
O 7.092352 7.948219 11.886496
O 4.856119 7.915080 6.980110
O 6.463706 10.058990 5.998739
O 6.371641 6.055928 8.050426
O 8.464860 5.346667 7.323568
O 4.158388 8.777177 9.001545
O 7.939297 4.487222 9.388293
O 5.801883 6.418916 10.375740
O 7.729628 8.781929 8.786747
