40

Ba 1.974234 2.432306 2.541609
Ba 1.974133 2.432469 14.458173
Ba 5.922340 2.168023 19.112853
Ba 1.974175 2.432346 7.021732
Ba 0.000006 0.000069 9.653080
Ba 3.948420 -0.264183 4.799617
Ba 3.948278 -0.264276 16.470172
Ba 3.948065 -0.263667 12.202823
Li 5.922376 -2.960885 15.981617
Nb 1.974157 2.432550 10.774399
Nb 0.000130 -0.000045 3.507331
Nb 0.000107 0.000019 6.111437
Nb 0.000000 0.000262 13.263905
Nb 1.973967 2.432255 17.955893
Nb 3.948189 -0.264334 1.151866
Nb 3.948343 -0.264262 8.448291
O 0.958266 3.820516 4.803701
O 5.912384 -0.395837 0.072945
O 0.006171 2.564168 9.596025
O 0.997993 3.765895 11.932816
O 1.028589 3.723907 16.939409
O 0.997834 1.229516 11.931755
O 1.028725 1.267429 16.938382
O 0.958035 1.180305 4.802385
O 1.878231 -0.125587 14.292065
O 3.926685 2.301720 11.932549
O 3.865044 2.305753 16.939322
O 2.966169 1.077099 0.073174
O 2.958191 1.088222 9.595834
O 2.007364 -0.134349 2.389317
O 2.000328 -0.133930 7.242027
O 4.006691 2.296039 4.803406
O 4.922446 0.935778 7.242801
O 2.966388 -1.474169 0.072165
O 2.958108 3.644761 9.596788
O 4.918945 0.931471 2.390106
O 4.983452 1.010874 14.292988
O 4.918880 -1.589922 2.389225
O 4.922345 -1.594716 7.241666
O 4.983062 -1.677999 14.291766
