24

Mn 2.127913 4.503434 2.141319
Mn 2.818901 1.501231 4.600238
Fe 7.187129 4.503435 0.152937
Fe 7.653285 1.501149 2.612042
P 0.997482 1.501123 2.071912
P 3.949303 4.503446 4.530951
P 5.910252 1.501148 0.397334
P 8.930132 4.503442 2.856422
O 0.529396 4.503433 3.206978
O 1.193523 1.501147 3.598763
O 1.705497 0.298789 1.373042
O 1.705497 2.703499 1.373048
O 3.241308 3.301100 3.832069
O 3.241298 5.705768 3.832055
O 3.753291 4.503440 1.139761
O 4.417379 1.501148 0.747981
O 5.454346 4.503435 4.241327
O 6.121164 1.501148 3.805899
O 6.648373 0.301474 1.112873
O 6.648364 2.700816 1.112864
O 8.192021 3.303779 3.571914
O 8.192021 5.703091 3.571920
O 8.719141 4.503442 1.346878
O 9.386058 1.501155 1.782345
