38

Li 1.715314 4.513463 10.492283
Li 4.751567 4.120578 4.105382
P 0.762368 3.654247 4.796705
P 1.676248 6.247292 6.131507
P 1.691646 7.170153 12.562267
P 4.775236 1.463889 2.035398
P 4.790634 2.386749 8.466158
P 5.704514 4.979794 9.800960
W 1.457454 1.840696 1.733862
W 1.558409 1.742867 7.252654
W 4.908473 6.891175 7.345011
W 5.009428 6.793346 12.863803
O 0.855290 3.019107 3.380158
O 0.733939 3.555371 8.605879
O 0.490830 5.884261 6.955043
O 1.441578 1.029973 9.037700
O 1.591694 2.907768 5.744034
O 0.588687 6.018853 12.149737
O 1.534572 5.133837 4.821554
O 1.616229 3.110024 11.577872
O 1.750688 7.621621 3.157579
O 1.574705 7.660523 5.740586
O 3.450120 2.183372 2.444078
O 1.993617 7.542101 9.326418
O 3.427512 2.644268 7.816186
O 3.039370 5.989773 6.781479
O 4.473265 1.091941 5.271247
O 3.016761 6.450669 12.153587
O 4.892177 0.973519 8.857079
O 4.716193 1.012420 11.440086
O 4.850653 5.524018 3.019793
O 4.932310 3.500204 9.776111
O 5.878195 2.615188 2.447927
O 4.875188 5.726273 8.853630
O 5.025304 7.604068 5.559965
O 5.976052 2.749780 7.642622
O 5.732942 5.078671 5.991786
O 5.611591 5.614934 11.217507
