27

V 1.632232 5.788711 4.064139
V 3.638583 4.005385 5.506026
V 5.644935 2.222060 6.947913
Si 1.218554 2.033932 3.700088
Si 1.149021 2.223867 6.950237
Si 2.808695 0.449257 5.384571
Si 4.468471 7.561514 5.627481
Si 6.128146 5.786904 4.061815
Si 6.058612 5.976838 7.311964
O 0.330638 5.183237 2.864143
O 0.330493 5.978518 5.117477
O 1.141118 1.985145 2.341972
O 2.060559 3.687262 4.253930
O 2.122859 0.684637 4.128864
O 1.594194 0.597442 6.352861
O 2.347891 3.577647 6.578415
O 3.173871 6.194967 5.384601
O 4.236643 1.564985 1.998466
O 3.040517 6.445786 9.013585
O 4.103296 1.815804 5.627451
O 4.929276 4.433124 4.433637
O 5.682972 7.413329 4.659191
O 5.154308 7.326134 6.883188
O 5.216608 4.323509 6.758122
O 6.136049 6.025626 8.670080
O 6.946674 2.032253 5.894575
O 6.946529 2.827534 8.147909
