55

Li 6.642149 6.307487 8.352542
Li 1.330976 6.632587 6.002916
Li 2.656858 4.314841 2.999196
Li 3.982749 1.997099 10.702157
La 2.656858 4.314841 8.352542
La 0.000709 8.958014 14.338891
La 5.313015 8.630926 6.010433
Nb 4.641764 5.343373 11.049276
Nb 0.639870 3.342426 11.049276
Nb 0.671960 3.286322 5.655812
Nb 1.970121 1.013945 2.720820
Nb 5.998158 11.909666 11.626229
Nb 3.298004 7.670492 8.723084
Nb 2.015712 9.918443 11.626229
Nb 4.673854 5.287269 5.655812
Nb 5.974772 3.016271 2.720820
Nb 7.286148 9.664565 8.723084
Nb 3.343603 7.615750 3.277576
Nb 7.309526 9.598711 3.277576
O 1.332147 2.160718 9.539554
O 3.906008 2.131239 8.148866
O 6.716571 6.177410 10.925142
O 7.920264 4.073251 8.207338
O 2.700306 4.238900 10.902240
O 5.308727 4.149007 9.539554
O 1.310977 2.286313 6.997921
O 2.546657 8.882872 12.992426
O 6.624694 10.921890 12.992426
O 4.002747 6.343382 9.707157
O 5.208744 4.235196 6.997921
O 0.104981 4.394499 9.707157
O 1.380481 2.238505 4.132612
O 2.656858 8.794463 10.174660
O 6.642149 10.787109 10.174660
O 5.212697 4.154614 4.132612
O 2.613418 4.390795 5.802837
O 6.567736 6.437576 5.779935
O 0.004998 4.480679 7.165520
O 5.364042 8.541726 8.497747
O 3.981577 6.468968 7.165520
O 1.407708 6.498452 8.556211
O 2.767067 8.706068 7.356887
O 3.948762 6.573654 4.616197
O 5.383634 4.065377 1.382200
O 7.900672 8.549609 4.616197
O 6.659613 10.652340 7.356887
O 1.364962 2.056041 1.382200
O 3.933243 6.391180 1.865781
O 0.101027 4.475072 1.865781
O 5.269065 8.707763 3.484178
O 1.268199 6.742334 3.430857
O 2.656858 8.794463 4.821314
O 4.045517 10.846593 6.211761
O 6.642149 10.787109 4.821314
O 0.044659 8.881177 6.158444
