52

Li 3.493475 10.781467 6.121352
Li 1.059709 15.349808 3.245884
Li 3.381079 13.992266 1.719087
Li 3.852724 2.089301 2.895061
Li 1.145723 9.649625 1.193516
Li 1.389024 6.657643 6.329754
Li 3.965121 5.300100 0.727160
Li 1.303010 0.957459 1.811955
V 3.869816 2.254226 5.985365
V 3.476383 10.946392 3.031048
V 1.503410 6.482687 3.095438
V 0.945324 15.174852 -0.089967
P 0.830419 12.395880 1.738569
P 1.618314 3.703714 1.266902
P 1.135047 9.322556 4.636398
P 3.583031 16.739512 1.069621
P 1.313687 0.630391 4.939239
P 3.266546 13.662416 4.749245
P 4.079653 4.970250 4.267169
P 3.763169 8.047346 1.376626
O 4.795154 14.047444 4.853333
O 4.266149 16.201641 2.258352
O 4.673060 5.625848 5.460113
O 1.382281 16.448550 5.065819
O 3.176453 12.098834 4.607741
O 2.551046 5.355278 4.163081
O 0.619794 1.214591 6.232409
O 0.288921 11.568021 0.632915
O 2.813849 1.127322 4.906650
O 4.788126 5.353696 2.905036
O 2.050902 16.306625 1.136437
O 2.377392 12.103893 1.873043
O 1.828939 9.906757 3.343229
O 3.793940 9.621671 1.453597
O 2.159812 2.875855 2.372556
O 4.255590 16.197121 -0.246264
O 0.091352 12.085014 3.103118
O 1.066453 7.756385 4.509818
O 0.642038 1.030734 3.685033
O 3.552260 0.929505 0.992650
O 1.818664 5.251389 1.460728
O 3.090610 7.504955 2.692511
O 4.169747 3.406668 4.408672
O 0.071341 3.411727 1.132428
O 0.630069 13.943555 1.544743
O 1.806695 9.722900 5.890604
O 0.397831 7.614459 1.869034
O 2.357381 3.392848 -0.097647
O 2.673140 14.318014 3.556300
O 4.532351 9.819487 4.109763
O 3.080051 7.509475 0.187895
O 2.558074 14.045862 6.111378
