26

Li 1.693235 2.882047 1.265295
Li 4.163885 7.944736 3.613317
V 0.055385 5.380110 3.657031
V 2.870762 0.659000 3.657264
V 2.986358 5.721689 1.221347
V 5.801735 0.317420 1.221580
Si 0.048169 7.125674 0.921117
Si 2.907650 9.049709 1.494066
Si 2.949470 3.987020 3.384545
Si 5.808951 2.062985 3.957494
O 5.820396 6.908131 2.543514
O 5.806948 3.662410 4.339787
O 1.205003 1.359555 4.799632
O 1.249822 6.288792 0.145731
O 1.685720 9.929888 2.232883
O 1.665730 4.759080 2.605557
O 2.937621 2.458239 2.851609
O 2.999297 9.167862 4.752644
O 2.857824 4.105173 0.125967
O 2.919499 7.520929 2.027002
O 4.191390 9.821769 2.273054
O 4.171400 4.867199 2.645729
O 4.607299 1.226102 4.732881
O 4.652117 6.422244 0.078979
O 0.050172 8.725099 0.538824
O 0.036724 1.845441 2.335097
