44

Li 5.400619 8.519734 2.970554
Li 1.222029 11.698018 0.483916
Li 2.956562 4.958768 2.002723
Li 7.135152 1.780483 4.489362
Co 6.170408 4.422835 3.498652
Co 2.186773 9.055666 1.474626
Co 1.991817 2.316415 1.012013
Co 6.365364 11.162086 3.961265
P 1.859974 0.501481 3.541267
P 2.318616 7.240732 4.033244
P 6.497207 12.977020 1.432011
P 8.018548 4.311530 1.103054
P 4.517224 11.050780 1.268991
P 3.839958 2.427721 3.704287
P 0.338633 9.166971 3.870224
P 6.038565 6.237769 0.940034
O 5.371896 10.368687 2.336776
O 7.229129 11.954837 0.521472
O 5.342763 2.604370 3.497754
O 7.676380 3.861658 2.538588
O 2.651065 7.532555 0.451840
O 1.693758 12.551477 3.927945
O 5.872349 7.666275 1.326712
O 7.193009 9.343620 3.962163
O 6.829656 12.685197 2.938479
O 2.484832 5.812226 3.646566
O 1.193314 9.849064 4.938009
O 5.706116 5.945946 4.521438
O 3.050538 8.262914 3.122705
O 1.527526 0.793304 2.034799
O 4.882207 12.618721 1.315247
O 0.703616 7.599031 3.916480
O 7.653565 5.879470 1.056798
O 0.680801 9.616843 2.434690
O 6.663423 0.927024 1.045333
O 1.164172 4.134881 1.011115
O 1.128052 1.523664 4.451806
O 5.306643 5.215587 1.850573
O 3.474974 0.859780 3.658031
O 3.497790 2.877593 0.051949
O 7.163876 3.629437 0.035269
O 3.014419 10.874131 1.475524
O 4.859392 10.600909 4.921329
O 2.985285 3.109814 2.636502
