14

Li 0.000000 0.000000 2.133179
Li 0.000000 2.980730 -1.500199
V 2.233825 3.670408 0.242912
V 3.729323 2.149170 -1.867444
Fe 0.000000 0.000000 0.000000
Fe 2.981574 -0.070941 0.687933
O 1.510871 1.515277 0.649277
O 1.563824 4.410572 -0.794466
O 4.352675 4.344216 -0.151004
O 4.452277 1.405135 -2.889467
O 1.510871 4.414443 1.264936
O 1.610473 1.475362 -1.473528
O 4.399324 1.409006 -0.830065
O 4.452277 4.304301 -2.273808
