16

Li 2.980935 4.036094 0.097411
Li 2.980678 4.035922 -2.338360
Li 0.000227 2.580357 -0.835447
Li 2.980815 6.616106 1.697724
V 5.961219 5.491919 -1.405406
V 5.961213 2.910994 -0.569822
Cr 2.981125 6.616294 -0.738013
Cr -0.000578 -0.000349 -0.000486
O 4.491942 6.129914 0.096203
O 1.352684 4.565292 1.697957
O 4.482916 6.093092 -2.193922
O 1.423041 4.692574 -0.739979
O 4.538530 3.379174 0.934758
O 1.478339 1.978765 2.388664
O 4.608524 3.506526 -1.503172
O 1.469707 1.942316 0.098559
