68

Li 0.423916 7.821756 8.234149
Li 7.407362 1.049250 7.800094
Li 5.297609 3.004732 7.671257
Li 3.211323 5.092153 7.475622
Li 6.932970 2.640257 6.108574
Li 1.746096 6.837727 6.919220
Li 5.467630 0.894679 5.552345
Li 3.381336 7.202307 5.356626
Li 1.271513 5.246931 5.227796
Li 8.255124 3.624258 4.793589
Li 3.909260 0.578027 3.887184
Li 1.130019 3.303524 3.132381
Li 7.721454 5.388753 3.328463
Li 5.607413 7.348877 3.462898
Li 6.090190 5.761354 1.772292
Li 2.588893 1.563635 2.570565
Li 3.071540 3.151257 0.879838
Li 0.957481 1.191029 1.014332
Li 7.548942 7.501258 1.210320
Li 4.769789 4.775817 0.455720
Mn 1.036217 3.149186 7.548755
Mn 7.642658 7.346843 5.479224
Mn 3.303598 5.243898 3.206157
Mn 5.375294 1.046247 1.136628
Cr 7.557109 5.245488 7.635186
Cr 3.243071 1.025522 7.566537
Cr 5.435787 5.223050 5.461388
Cr 1.121687 1.048133 5.392783
Cr 1.096440 7.367587 3.223819
Cr 5.461346 3.147535 3.292656
Cr 3.217711 7.345144 1.050488
Cr 7.582435 3.169822 1.118890
Cr 5.391394 7.322600 7.611663
Cr 3.287481 3.124929 5.416350
Cr 7.627123 1.070826 3.269548
Cr 1.051787 5.268448 1.073316
O 5.326614 0.966761 7.577018
O 0.925239 5.327173 7.708078
O 3.359248 7.384459 7.674468
O 7.520744 3.197619 7.781342
O 5.494101 5.283143 7.494481
O 1.190477 0.970266 7.442334
O 3.276103 3.063031 7.497818
O 7.412110 7.293441 7.673993
O 1.266783 3.095808 5.353925
O 5.402763 7.260685 5.530057
O 7.488441 5.167865 5.585539
O 3.184757 1.085506 5.533410
O 1.158183 7.395266 5.246550
O 5.319653 3.186834 5.353450
O 7.753653 1.129517 5.319822
O 3.352287 5.164403 5.450863
O 7.691026 7.426027 3.234087
O 3.414255 3.065784 3.365960
O 5.497720 5.195270 3.438893
O 0.980637 1.008431 3.331583
O 3.149043 7.421944 3.100080
O 7.524338 3.109855 3.152276
O 1.062931 5.329784 3.155670
O 5.605851 1.099473 3.331737
O 3.073050 5.297065 1.010971
O 7.615927 1.132128 1.187108
O 1.154589 7.307485 1.190485
O 5.529884 3.224343 1.242725
O 7.698290 5.206097 1.011185
O 3.181233 0.997540 0.903892
O 5.264663 7.263313 0.976826
O 0.987901 3.228353 1.108658
