11

Mn 1.179140 1.611179 1.969759
Mn 1.178596 1.610408 7.087463
Mn 2.358281 3.222006 4.436385
Mn 2.358132 3.221791 13.785708
Mn 2.358801 3.222711 9.741958
O 1.179179 1.611205 3.957324
O 1.179735 1.611964 9.174412
O 1.179084 1.611068 0.011412
O 2.357973 3.221580 1.997858
O 2.358118 3.221778 6.547139
F 2.356229 3.219213 11.769311
