28

Li 2.007219 2.473164 8.855879
Li 0.000030 5.215029 9.659679
Li 6.021849 2.204174 4.762753
Li 4.014661 -0.268817 3.958937
Mn 0.969685 3.803025 2.088885
Mn 1.070768 1.231746 2.088914
Mn 3.981606 2.384634 2.088819
Mn 2.040273 -0.092867 6.986058
Mn 5.052194 0.922066 6.986147
Mn 4.951111 -1.635683 6.986176
Sb 2.007339 2.473130 4.752747
Sb 4.014540 -0.268835 9.650001
O 0.857004 3.779172 5.790397
O 0.218112 2.387649 3.429272
O 2.007381 2.473150 1.155535
O 0.000066 0.000113 2.900708
O 6.021813 -3.010737 7.797977
O 1.163168 1.168056 5.790389
O 2.664856 3.693908 3.429257
O 3.139049 1.337900 3.429264
O 2.020256 -0.002688 0.893437
O 4.001623 2.472132 5.790394
O 3.357023 1.040021 8.326506
O 2.882830 -1.252461 8.326509
O 4.014498 -0.268809 6.052789
O 5.164876 0.883119 0.893465
O 5.803767 -0.593998 8.326540
O 4.858711 -1.686990 0.893454
