28

Li 0.003414 10.519611 6.116016
Li 0.003414 10.519611 3.062184
Li 2.388325 5.289925 3.065757
Li 2.388325 5.289925 6.112442
Mn 2.285348 2.327321 4.589100
Mn 2.493971 8.234356 1.529700
Mn 4.665928 3.007310 1.529700
Co 0.119374 7.595685 4.589100
P 0.385204 6.256716 1.529700
P 1.979228 0.991522 1.529700
P 2.807792 9.540492 4.589100
P 4.370580 4.342705 4.589100
O 1.005287 4.830216 1.529700
O 0.999304 7.003460 0.282591
O 0.999304 7.003460 2.776809
O 1.133790 4.263135 4.589100
O 1.268634 9.494620 4.589100
O 1.344629 1.722923 0.294908
O 1.344629 1.722923 2.764492
O 1.391446 10.079011 1.529700
O 3.381279 0.462264 4.589100
O 3.457088 8.807404 3.362029
O 3.457088 8.807404 5.816170
O 3.516715 1.032350 1.529700
O 3.624873 6.293994 1.529700
O 3.734406 3.593181 3.358199
O 3.734406 3.593181 5.820000
O 3.788079 5.779685 4.589100
