60

Na 7.596623 5.354212 8.197097
Na 1.213782 0.793534 5.539243
Na 5.618989 3.767192 3.618318
Na 3.191399 8.327828 0.960458
Li 1.083643 3.753999 7.624215
Li 7.726770 8.314751 6.112138
Li 3.321572 5.367318 3.045427
Li 5.488806 0.806616 1.533364
Cu 0.996183 7.827221 8.188582
Cu 7.814196 3.266605 5.547744
Cu 3.408998 1.294142 3.609829
Cu 5.401381 5.854790 0.968951
P 8.398933 1.594248 8.716307
P 6.349274 8.518525 8.515090
P 4.901215 4.051263 7.026385
P 3.909208 8.611925 6.709950
P 2.461149 3.957831 5.221245
P 0.411463 6.154895 5.020031
P 4.816652 7.527165 4.137511
P 6.866338 0.602870 3.936327
P 8.314380 5.070159 2.447598
P 0.495999 0.509411 2.131165
P 1.944049 5.163514 0.642446
P 3.993744 2.966486 0.441267
O 6.943447 0.859144 8.965594
O 1.150620 5.599382 8.591526
O 8.185360 3.023104 8.285836
O 4.541266 2.863390 8.088516
O 7.447349 7.663961 7.937954
O 0.438071 0.735555 7.818879
O 5.350624 5.250693 7.795591
O 3.075762 8.007505 7.799992
O 5.412887 8.947688 7.286181
O 3.397544 4.387040 6.450135
O 5.734660 3.446851 5.936371
O 3.459790 0.690027 5.940776
O 8.372290 5.296241 5.917461
O 1.363074 3.103248 5.798400
O 4.269130 7.424037 5.647821
O 0.625018 7.583698 5.450500
O 7.659802 1.038755 5.144786
O 1.866949 5.419768 4.770755
O 6.272139 8.262260 4.386798
O 3.254622 3.521935 4.012796
O 5.030216 6.098310 3.707024
O 8.674337 6.258023 3.509728
O 5.768290 1.457452 3.359152
O 3.967110 8.385825 3.240096
O 7.864997 3.870702 3.216861
O 1.329436 1.113830 3.221217
O 7.802742 0.173643 2.707448
O 1.007627 4.734296 1.871316
O 7.480934 5.674526 1.357609
O 0.945426 8.431354 1.361942
O 4.843260 3.825127 1.338698
O 3.042098 6.018078 1.219628
O 0.136050 1.697307 1.069061
O 3.780180 1.537610 0.871710
O 5.555801 8.082640 0.565999
O 2.538249 3.701558 0.191978
