64

Li 2.436304 1.525765 1.049735
Li 2.567635 3.200099 3.684899
Li 4.650283 1.540578 8.528747
Li 7.799984 1.574187 4.499373
Li 7.838833 6.141366 2.093726
Li 8.254413 3.128954 7.459943
Li 8.366157 4.676487 10.037908
Li 10.365605 1.487910 8.123318
Cr 0.011607 6.192210 0.074339
Cr 10.765917 3.120062 0.094777
Cr 0.054720 6.165771 5.522218
Cr 0.006644 3.108659 5.508833
Cr 5.331334 6.181670 5.552312
Cr 5.339151 3.120516 5.519905
Cr 5.377774 6.198658 0.066349
Cr 5.395842 3.138250 0.077850
P 0.437675 4.626010 8.197594
P 2.601423 4.634365 0.954761
P 2.822608 1.550058 6.305896
P 5.009732 1.601769 2.643699
P 5.808601 4.612276 8.413789
P 7.980392 4.667504 4.704702
P 8.193006 1.581716 10.208167
P 10.389692 1.482231 2.938151
O 0.166874 1.542021 1.379641
O 0.254456 0.249532 3.546177
O 0.213292 2.775748 3.565751
O 1.268167 1.554029 5.882150
O 1.899332 4.515768 8.280879
O 1.935350 3.369630 0.302723
O 1.937266 5.925851 0.366550
O 2.625854 4.592349 2.438057
O 2.957911 1.633154 7.787834
O 3.423614 0.272483 5.663106
O 3.401863 2.793807 5.526716
O 3.498577 1.653259 2.652158
O 4.091119 4.667555 0.344468
O 5.178555 3.379360 9.119046
O 5.316755 5.922847 9.100228
O 5.274116 4.631306 6.921574
O 5.573957 1.564357 4.153197
O 5.628321 0.330209 1.962090
O 5.643213 2.848212 1.988115
O 6.674895 1.566907 10.663783
O 7.327057 4.499512 8.423558
O 7.357647 3.377446 5.393493
O 7.316128 5.942978 5.322235
O 7.951654 4.634424 3.217108
O 8.380984 1.587461 8.708651
O 8.786615 0.285742 10.876121
O 8.807934 2.851209 10.867857
O 8.871817 1.414887 2.898426
O 9.471617 4.646681 5.282883
O 10.437747 3.386911 7.537841
O 10.613773 5.890957 7.542944
O 10.528075 4.656756 9.739102
F 0.351341 1.559089 9.868833
F 1.234594 4.604907 5.396016
F 4.163713 1.556939 10.880296
F 5.022556 4.649447 4.369858
F 5.703758 1.559748 6.711335
F 6.650711 4.690810 0.196759
F 9.535048 1.528838 5.701747
F 10.363290 4.656312 1.248147
