24

Li 0.817599 3.916687 1.587060
Li 2.355781 1.409424 2.968530
Li 6.042425 4.100065 6.194603
Li 7.580607 1.592801 4.813134
V 2.716265 4.205687 4.894522
V 5.681941 1.303801 1.668448
P 3.510635 3.826767 1.625748
P 4.887571 1.682721 4.851821
C 0.335130 3.566573 4.832304
C 8.063076 1.942915 1.606230
O 0.629672 4.830963 4.864506
O 0.825854 1.927647 1.783548
O 1.387400 2.746417 4.638275
O 2.547747 4.084423 0.418041
O 2.627429 4.343421 2.823427
O 3.573218 0.930206 4.707629
O 3.835662 2.321467 1.814389
O 4.562544 3.188022 5.040463
O 4.824988 4.579282 1.481555
O 5.850459 1.425065 3.644115
O 5.770777 1.166067 6.049501
O 7.010806 2.763072 1.412201
O 7.572352 3.581841 5.009621
O 7.768534 0.678525 1.638432
