46

La 1.239534 4.209396 6.552291
La 1.320378 4.278973 13.877078
La 1.509398 4.241149 9.974723
La 1.277039 1.442914 20.168713
La 1.465646 1.480751 3.719566
La 1.546413 1.411288 16.746027
La 4.112002 4.128078 3.654955
La 4.155916 4.018188 16.715176
La 4.136865 4.322712 20.120323
La 4.221309 1.525163 9.962906
La 4.202297 1.220036 6.557946
La 4.245820 1.330232 13.848786
Mn 1.384300 4.203483 1.938073
Mn 1.364709 4.221380 18.328961
Mn 1.421427 1.423127 8.171427
Mn 1.401668 1.405544 12.131699
Mn 4.158323 4.172545 12.138603
Mn 4.199790 1.373912 1.980642
O 0.009807 0.021965 2.410058
O 0.009133 2.756884 2.012601
O 0.079368 0.089561 8.430014
O 0.047301 2.728560 8.173117
O 5.559668 5.548670 11.806148
O 5.553761 2.805183 12.196131
O 0.045490 5.528782 18.056464
O 0.057375 2.849328 18.354143
O 1.136446 4.460387 20.250286
O 1.238158 1.230966 6.094018
O 1.137354 1.096982 14.384300
O 1.648570 3.895103 4.190684
O 1.547833 4.029098 16.251195
O 1.649673 1.662184 10.092598
O 2.803983 0.007133 2.038676
O 2.798506 2.750491 1.648369
O 2.740729 2.730587 7.899413
O 2.728610 0.051049 8.196787
O 2.776858 5.555275 12.170135
O 2.776078 2.820306 12.567430
O 2.738941 5.526589 18.330448
O 2.706723 2.887519 18.587487
O 3.867107 3.875993 10.319480
O 3.944569 1.622433 4.077844
O 3.814496 1.789441 15.978990
O 4.543733 4.587479 5.785441
O 4.413198 4.420584 14.235066
O 4.491033 1.077620 0.161632
