24

Li 1.996335 3.152676 1.148882
Li 1.996335 0.005388 1.148882
Li 6.538659 3.163451 4.112930
Li 6.538659 6.310740 4.112930
Mn 2.920052 4.737096 4.086547
Mn 5.614942 1.579032 1.175265
Si 3.636232 1.579032 3.666489
Si 4.898762 4.737096 1.595323
C 0.502438 4.737096 3.664223
C 8.032556 1.579032 1.597589
O 0.733224 1.579032 1.522979
O 1.031693 4.737096 4.855666
O 1.423705 4.737096 2.700243
O 2.742601 0.299075 4.156137
O 2.742601 2.858989 4.156137
O 3.409781 4.737096 0.918826
O 3.898128 1.579032 2.030219
O 4.636866 4.737096 3.231593
O 5.125213 1.579032 4.342987
O 5.792393 3.457139 1.105675
O 5.792393 6.017053 1.105675
O 7.111289 1.579032 2.561569
O 7.503301 1.579032 0.406147
O 7.801770 4.737096 3.738834
