14

Li 3.107924 5.820532 2.530611
Li 4.998462 2.564600 0.021749
V 0.399757 0.828722 2.588161
Ga 2.325607 4.187788 5.158961
Ga 3.135690 2.602601 2.496028
Ga 4.970641 5.719810 0.034914
O 0.170808 0.677437 0.861233
O 0.520475 4.254221 0.345157
O 2.104583 1.021037 2.957290
O 2.642894 4.128541 3.328429
O 3.185273 2.696838 0.687646
O 3.248470 5.687599 0.598239
O 4.914711 2.175619 3.152079
O 5.131295 6.140940 3.339278
