24

Li 1.563672 2.829890 4.634267
Li 1.577241 7.814039 2.511661
Li 4.704586 2.154259 2.276013
Li 4.718154 7.138407 0.153407
V 0.000000 4.984149 2.376045
V 0.000000 0.000000 0.000000
V 3.140913 4.984149 2.393837
V 3.140913 0.000000 0.017791
F 0.079578 8.468707 3.584516
F 6.220334 6.495482 1.256465
F 1.535417 0.905281 3.865822
F 1.605497 5.889430 3.280106
F 1.535580 4.201996 1.346953
F 1.605333 9.186145 1.046883
F 3.061335 3.484558 3.561412
F 3.079420 8.456964 3.614719
F 3.202406 1.511333 1.172955
F 3.220491 6.483739 1.226262
F 4.676493 0.782152 3.740790
F 4.746247 5.766301 3.440720
F 4.676330 4.078868 1.507568
F 4.746410 9.063016 0.921852
F 0.061493 3.472815 3.531209
F 6.202248 1.499591 1.203158
