68

Zr 2.208044 4.653902 4.667218
Zr 2.208592 4.195868 10.850431
Zr 6.625608 8.621119 10.851031
Zr 6.626235 0.228744 4.666604
Fe 2.219325 8.563701 7.594469
Fe 2.197523 0.286990 1.409280
Fe 6.636500 4.712020 1.409397
Fe 6.615007 4.138419 7.593311
P 0.260698 2.133399 6.373131
P 0.737331 3.235100 1.669165
P 1.198849 0.799491 10.498349
P 3.681116 5.616759 7.854448
P 3.218335 8.049899 4.314296
P 4.156009 6.716964 0.188701
P 4.677935 2.291594 0.187985
P 5.153119 1.191652 7.853715
P 5.616103 3.624861 4.313447
P 7.635784 5.225233 10.498616
P 8.096789 7.660477 1.669711
P 8.573537 6.558658 6.373499
O 0.508039 5.727306 5.320940
O 0.695315 7.354172 7.283872
O 0.791096 7.795222 1.703613
O 0.343413 5.089604 10.461345
O 0.954353 1.202663 7.380393
O 1.283958 3.032305 5.648947
O 1.777420 0.345650 11.856815
O 1.321477 3.736862 0.335612
O 0.924431 1.713525 1.799912
O 1.589489 2.263724 10.195570
O 1.405472 3.991244 2.848956
O 1.828499 8.631044 9.526249
O 2.589709 0.219745 3.338922
O 3.012807 4.859615 9.033454
O 3.492726 7.137015 7.985365
O 2.826555 6.585471 4.010592
O 3.096281 5.114634 6.521285
O 2.637918 8.504112 5.671979
O 3.463697 7.645974 1.195046
O 3.132758 5.818094 11.833284
O 3.626070 1.055203 7.886702
O 4.073356 3.759273 4.277991
O 3.723476 1.496148 1.097360
O 3.909587 3.122721 11.505263
O 5.110494 5.921300 1.097645
O 4.924418 7.548034 11.505741
O 5.208412 5.480355 7.887021
O 4.760888 8.184569 4.278302
O 5.370618 3.220831 1.194131
O 5.701035 1.392807 11.832766
O 5.737830 0.689179 6.520716
O 6.196847 4.079238 5.670676
O 6.007813 2.160457 4.009840
O 5.341535 2.711978 7.984056
O 6.243925 4.644785 3.339030
O 5.821543 0.434859 9.032795
O 7.429107 8.416367 2.849651
O 7.005435 4.205697 9.524830
O 7.909406 6.138690 1.800329
O 7.244781 6.688928 10.196160
O 7.056815 4.770572 11.857486
O 7.512697 8.162286 0.336403
O 7.880253 5.627298 7.381208
O 7.550092 7.457082 5.649724
O 8.490946 0.664436 10.460762
O 8.043174 3.370472 1.702910
O 8.326452 1.301909 5.320078
O 8.138840 2.928598 7.282857
