100

Li 2.531108 5.158303 1.773297
Li 8.546156 6.786903 12.616457
Li 3.953830 6.929025 10.671513
Li 6.049792 5.521502 16.531192
Li 0.034744 3.892902 5.688031
Li 4.627070 3.750780 7.632976
Li 4.528021 9.485243 14.858242
Li 4.052879 1.194562 3.446246
Ni 8.229427 3.560363 5.871230
Ni 0.351474 7.119442 12.433259
Ni 6.315594 9.249020 8.724663
Ni 0.418413 0.520758 4.423158
Ni 7.325901 2.435833 14.563382
Ni 4.085281 5.084548 13.520164
Ni 0.815915 2.404109 17.009680
Ni 4.495619 5.595257 4.784324
Ni 7.066989 8.795588 5.012101
Ni 4.290450 1.229346 -1.108570
Ni 7.764985 8.275696 1.294809
Ni 2.265306 1.430784 9.579826
Ni 1.255000 8.243972 3.741107
Ni 0.000000 4.110556 10.260814
Ni 1.513911 1.884217 13.292388
Ni 8.162487 10.159047 13.881331
P 1.902892 4.279801 11.809815
P 0.164753 5.638690 17.763081
P 6.099321 3.020584 4.518614
P 6.678008 6.400004 6.494674
P 5.836188 1.830093 9.085059
P 7.252251 4.455522 13.392931
P 2.744713 8.849712 9.219430
P 3.898003 2.940003 15.020604
P 0.909764 6.583476 9.095031
P 1.981390 7.917223 17.962146
P 6.599510 2.762581 0.342343
P 4.682898 7.739801 3.283885
P 1.328649 6.224282 4.911558
P 8.416147 5.041115 0.541408
P 7.671136 4.096329 9.209458
P 2.481579 7.659221 13.785875
O 5.274757 2.260858 15.063370
O 5.052185 2.586173 0.376013
O 5.712752 8.079650 2.010918
O 3.483468 2.321276 13.641355
O 6.724731 7.400065 7.863005
O 2.411756 5.380743 5.178085
O 4.273580 8.920164 9.285830
O 4.053995 4.416111 15.190022
O 5.183954 5.822460 6.517927
O 1.856169 3.279740 10.441484
O 4.894940 3.713185 4.241344
O 7.199839 6.946678 5.198369
O 2.614892 0.924488 11.389197
O 5.097432 8.358529 4.663134
O 7.712110 8.710372 16.903479
O 7.392506 5.498940 9.355512
O 0.548457 4.283869 17.728041
O 1.381062 3.733127 13.106120
O 6.026075 3.057785 6.100114
O 2.425923 7.293737 9.128818
O 6.154977 3.386068 9.175671
O 1.448121 7.698615 5.505413
O 1.439558 8.296434 16.808182
O 0.782278 5.277739 11.789739
O 1.389385 6.171510 3.328950
O 8.397990 8.122143 3.129285
O 0.057672 0.963326 9.994388
O 2.868149 2.600155 16.293570
O 1.693484 6.382141 17.836126
O 0.298221 2.368420 4.031375
O 0.988237 0.338414 16.414826
O 2.554826 7.622019 12.204375
O 6.887417 4.297664 0.468363
O 3.528715 8.093632 17.928476
O 5.966008 9.755317 6.915292
O 0.182910 2.557662 15.175203
O 4.307320 1.759640 9.018658
O 7.132779 2.981189 12.799076
O 7.798623 5.402066 6.514750
O 8.032443 6.395936 0.576448
O 0.868790 1.969433 1.401010
O 6.785107 9.332892 10.697277
O 3.396947 4.857345 11.786562
O 3.306144 8.418947 3.241119
O 8.282680 8.311385 14.273114
O 2.382882 0.968485 4.978311
O 0.351911 6.942748 7.939647
O 4.526905 6.263694 3.114467
O 7.141343 2.383370 1.496307
O 8.523228 9.716479 8.310101
O 6.198019 9.711319 13.326178
O 6.169144 5.299061 13.126404
O 3.685960 6.966620 14.063145
O 7.592664 10.341391 1.889662
O 7.191515 4.508295 14.975539
O 8.228989 3.737057 10.364841
O 1.795794 1.346913 7.607212
O 0.978454 7.114067 14.235997
O 7.602446 3.565738 4.068491
O 1.188395 5.180865 8.948977
