14

Li 0.760458 2.115307 3.282567
Li 2.183854 2.719364 1.092511
Li 1.424640 4.147080 1.910955
Li 4.579540 3.691882 4.001567
Li 3.130470 4.834385 4.873550
Li 4.598771 5.593421 2.314370
Li 3.796183 6.633442 3.537183
Mn 0.183911 5.009932 3.041349
O 0.713548 1.555654 0.303878
O 0.627962 4.206524 0.174386
O 2.620779 5.075981 3.093124
O 4.599470 3.435757 5.628975
O 4.886838 6.196553 5.351246
F 2.851577 2.743919 2.799392
