12

Fe 2.938249 3.098623 -3.018381
Fe 0.000006 0.000000 2.135194
Fe 0.000012 2.933619 -1.466786
Fe 0.000000 2.933618 0.668417
O 4.518751 4.542979 -4.418396
O 1.203148 4.424971 -0.791110
O 1.357747 1.654255 2.652022
O 1.426050 4.214945 1.337650
O 4.673350 1.772263 -0.975261
O 1.357747 1.654255 0.741614
O 4.450460 1.982284 -3.104024
O 4.518763 4.542980 -2.507986
