40

Li 0.232975 0.153499 7.381546
Li 6.516800 4.189840 5.924307
Li 4.095334 5.779346 6.718003
Li 2.346502 7.489533 7.813196
Li 5.622319 4.708098 9.347663
Li 7.195173 8.344767 6.933742
V 1.218501 1.688685 1.927173
V 3.088997 4.203046 4.888088
V 5.564476 7.574781 8.880696
P 0.448477 5.941394 5.231158
P 3.843735 2.237119 7.384550
P 6.484315 6.450346 4.490959
P 2.228246 5.150321 9.282130
P 4.656775 9.526270 6.375466
P 8.245236 5.831870 8.362659
W 7.411799 10.001677 11.746754
O 1.070104 2.775715 4.765127
O 2.734670 5.106345 3.309370
O 0.424102 7.207853 4.322056
O 4.552898 3.031094 4.651110
O 2.055717 5.487463 5.437236
O 0.283963 6.276791 6.420614
O 2.234843 1.585853 7.815231
O 3.788294 3.583232 6.581586
O 5.163104 5.640351 5.204328
O 1.672451 3.732487 8.889325
O 0.940012 6.055088 8.929324
O 3.233494 1.577620 3.026451
O 5.195113 2.675645 8.381952
O 7.816810 5.604127 4.801256
O 7.004868 7.862388 4.936313
O 3.636880 5.943545 8.605443
O 4.746299 8.136331 7.149413
O 6.330705 10.015281 5.967975
O 8.369025 5.442893 7.183060
O 6.643927 6.353437 8.156888
O 4.185118 8.771865 9.146938
O 7.986944 4.570830 9.301675
O 6.003311 6.509935 10.442514
O 7.654311 8.909991 8.787387
