72

Li 0.534254 4.511115 3.194888
Li 4.983330 6.213150 3.194818
Li 3.528427 4.347447 6.429088
Li 3.528385 4.347449 0.329317
Li 0.000000 0.000055 1.033086
Li 0.000011 0.000059 5.797703
Li 5.068036 2.317731 3.194928
Li 5.602226 1.587985 7.959506
Li 5.517499 -2.296047 7.959598
Li 7.057161 -0.472631 1.664513
Li 7.057182 -0.472633 5.093996
Li 10.051323 -0.710129 7.959557
V 1.339404 6.614846 1.898332
V 1.716917 6.833439 8.111556
V 2.162168 6.921228 4.814156
V 1.345279 2.364949 4.814256
V 1.703727 2.110505 8.111667
V 2.174066 1.955714 1.898432
V 3.513491 0.126070 6.663041
V 3.420613 -0.234870 3.347036
V 7.072076 4.471354 1.898361
V 3.507510 -0.588688 0.049623
V 7.164985 4.097964 8.111582
V 7.078088 3.755779 4.814179
V 8.423409 1.918099 0.049581
V 8.868660 1.770653 3.346961
V 9.246163 1.501466 6.662992
V 8.411501 -3.045835 6.663111
V 8.881850 -2.954057 3.347082
V 9.240298 -2.747631 0.049680
O 0.735010 7.271345 6.386395
O 0.460123 6.426599 3.720195
O 1.832268 7.591887 0.322944
O 2.926912 7.286497 2.977435
O 1.671463 5.189524 1.531586
O 2.654831 5.524411 8.105443
O 0.481951 2.711176 2.977527
O 3.553292 5.889082 5.227851
O 1.733843 3.712009 5.227839
O 0.761325 1.865419 0.323058
O 2.673790 3.277804 8.105554
O 1.765007 1.282626 6.386500
O 3.628175 2.775526 1.531736
O 5.285887 5.076866 1.531670
O 2.899061 1.459618 3.720316
O 5.257020 4.239753 8.105436
O 2.499964 0.278482 1.621864
O 3.359269 0.831081 8.484941
O 5.298261 3.440925 5.227763
O 2.593509 -0.637429 5.087684
O 7.226329 5.155686 3.720261
O 3.408842 -1.287025 7.742150
O 8.085613 4.487964 6.386439
O 5.299669 0.492266 6.296350
O 7.176746 3.044227 2.977461
O 7.992058 3.584583 0.322994
O 5.328557 -0.348725 3.340870
O 7.658676 2.385835 7.742114
O 5.287326 -1.142024 0.463197
O 7.032274 1.072337 0.463275
O 8.753320 2.544569 5.087614
O 7.930725 0.587291 3.340867
O 9.850568 2.076999 1.621819
O 8.914104 0.120634 6.296265
O 6.957413 -2.031197 6.296415
O 10.125443 1.195419 8.484874
O 7.911798 -1.656791 3.340969
O 8.851723 -1.348522 0.463263
O 7.686547 -3.444796 8.484995
O 8.820570 -3.773726 1.621915
O 10.103647 -2.517077 7.742196
O 9.824262 -3.325407 5.087727
