32

Li 7.115993 1.098632 -2.680853
Li 3.731674 -1.160134 0.269832
Li 5.445797 0.041740 1.710654
Li 5.433774 1.549925 -0.666513
Li 5.323212 3.246257 -2.889701
Li 1.851718 2.814649 3.518263
Li 3.532209 2.136317 1.618071
Li 3.677734 0.588658 -2.122647
Li 0.005466 1.716264 2.097764
Li 3.664728 3.870029 -0.817822
Li 1.894394 -0.582553 2.367462
Li 1.782523 4.438286 1.227469
V 5.359193 -1.602032 -1.875878
V 1.856612 1.280743 -0.063288
V 7.062761 2.706725 0.844369
V 0.000166 0.142624 4.284952
O 5.462433 -0.191267 -1.217088
O 5.511052 1.764079 2.232612
O 1.608180 -0.473088 5.305918
O 7.221242 -0.672175 -3.275546
O 7.206176 4.447441 -4.563497
O 3.506934 2.129469 -1.366768
O 3.747297 5.515433 -0.154403
O 0.041245 3.600406 2.720043
O 1.784916 2.627469 0.612680
O 5.537744 4.961954 -2.215094
O 1.719531 1.019026 3.044345
O 5.546679 3.454537 -0.016932
F 3.570938 0.505326 0.845721
F 1.783369 4.616550 -1.746208
F 3.631457 4.003160 -3.799405
F 0.056926 5.146222 0.353508
