24

Li 1.783447 0.672130 8.534023
Li 1.770785 0.689040 3.744411
Li 3.519459 1.261461 1.194765
Li 3.419601 1.397297 5.984770
Cu 3.495614 -1.620779 3.511496
Cu 5.123478 -1.027254 0.983518
Cu 0.099838 3.000763 8.226017
Cu 1.696005 3.636636 5.696767
B 3.453794 -1.691830 8.272517
B 0.017389 1.544324 5.893620
B -0.004090 3.012254 3.401220
B 1.779138 -0.854616 1.142372
O 3.898375 -1.544368 5.464162
O 2.186391 -0.912434 7.918811
O 4.800381 -1.202968 8.607784
O 1.878119 0.313393 0.956480
O 5.073661 0.166663 6.106692
O 1.411709 0.948369 5.737812
O 3.832647 1.074037 3.198114
O 0.179617 1.816943 3.080902
O 3.382242 1.688373 7.979903
O 0.413057 3.197993 0.593755
O 3.034454 2.941012 1.267450
O 1.311788 3.542785 3.736997
