25

La 5.391206 -0.169143 3.951615
La 5.019437 -0.182836 7.579392
La 1.865494 1.776199 5.740641
La 5.017685 3.467556 7.943031
La 5.019437 3.497846 4.289742
La 1.865494 5.434169 2.426298
La 1.910382 5.435823 6.074637
Fe 0.042482 -0.000062 3.646878
Fe 0.053620 3.657631 7.630224
O 2.125712 -0.160718 3.851311
O 6.868147 5.207797 4.622051
O 6.886474 5.223967 8.141014
O 2.642581 -0.358646 7.151186
O 4.319263 1.740624 5.969768
O 6.924951 -0.162108 9.479053
O 6.868147 -0.306960 5.917725
O 4.893562 1.669826 2.274235
O 2.220090 3.691113 7.661431
O 6.933476 1.632019 7.919804
O 6.924951 1.646419 4.154025
O 2.642581 3.843975 4.428978
O 4.319263 5.270754 2.516439
O 6.886474 3.483159 6.248435
O 4.752398 5.318527 6.261391
O 6.933476 3.377073 9.817000
