38

Li 1.921481 1.988218 6.050300
Li 0.531105 3.378151 12.246464
Li 5.804276 0.001423 2.958428
Li 4.369080 1.436168 9.154589
Mn 0.266691 4.582151 7.633827
Mn 1.211023 5.581356 10.646276
Mn 2.180639 0.755931 10.733192
Mn 3.131473 4.585307 9.070051
Mn 4.124469 2.668838 4.450355
Mn 3.125565 1.724188 13.830671
Mn 3.127808 4.588970 15.266437
Mn 5.124713 0.740008 6.011900
Mn 5.124742 3.638773 7.462464
Mn 5.107881 0.756834 12.208284
O 0.446703 2.162016 4.511848
O 0.526030 5.073139 6.008383
O 0.705372 1.903429 10.708277
O 0.754864 5.253829 12.200777
O 1.674569 0.092007 6.155734
O 1.721684 3.424375 7.646811
O 2.847746 1.357568 2.958238
O 2.843977 4.063519 4.326159
O 2.556324 1.016939 9.204190
O 2.606113 4.301308 10.522508
O 1.871861 0.261123 12.361601
O 3.797088 2.212575 6.004877
O 3.797292 5.063467 7.700255
O 1.967326 3.178812 13.843237
O 5.389347 1.253812 4.544463
O 5.385630 4.014540 5.933444
O 3.616470 1.983683 12.205264
O 3.605756 5.254941 13.896611
O 4.638964 0.104592 7.432832
O 4.630032 3.329837 9.090843
O 4.472619 0.270883 13.629193
O 4.460979 3.132491 15.277754
O 5.621601 1.021633 10.740887
O 5.726166 4.306071 12.080273
