16

V 2.754768 3.766290 2.429106
V 2.754768 7.399529 2.555742
V 0.148589 3.787587 5.077313
V 0.148589 7.378232 -0.092465
O 4.060042 4.047922 1.447882
O 4.060042 7.117897 3.536966
O 1.008113 0.284661 1.577894
O 1.008113 3.437278 3.689984
O 0.402824 5.582909 -0.212272
F 4.737410 1.860970 -0.070757
F 3.604234 7.089953 0.798279
F 3.604234 4.075866 4.186569
F 3.060482 1.860970 2.633939
F 2.022932 5.582909 2.492424
F 1.477285 3.323402 0.981704
F 1.477285 0.398538 4.286174
