26

Li 0.893822 1.612036 3.805767
Li 2.304523 0.156793 1.238287
Li 2.304523 3.067280 1.238287
Li 6.109186 3.380866 4.061147
Li 6.109186 6.291353 4.061147
Li 7.519888 4.836109 1.493667
Fe 2.867653 4.836109 4.083114
Fe 5.546057 1.612036 1.216321
Si 3.538983 1.612036 3.691564
Si 4.874727 4.836109 1.607870
C 0.285932 4.836109 3.649832
C 8.127778 1.612036 1.649602
O 0.941940 1.612036 1.754953
O 0.594706 4.836109 4.897873
O 1.262233 4.836109 2.758370
O 2.592281 0.347587 4.170378
O 2.592281 2.876486 4.170378
O 3.740357 1.612036 2.042046
O 3.373157 4.836109 0.979807
O 5.040552 1.612036 4.319627
O 4.673353 4.836109 3.257388
O 5.821429 3.571660 1.129056
O 5.821429 6.100559 1.129056
O 7.151476 1.612036 2.541064
O 7.819003 1.612036 0.401561
O 7.471770 4.836109 3.544481
