54

Li 0.738126 7.228756 11.033404
Li 0.753283 2.383487 7.733783
Li 3.140957 7.555413 8.389160
Li 3.125800 4.251554 6.128667
Li 6.424898 8.287023 6.386568
Li 6.409741 4.983165 4.126074
Li 8.797416 10.155091 4.781452
Li 8.812573 5.309822 1.481831
Cr 0.000000 4.074564 2.780058
Cr 4.775349 2.194725 3.477560
Cr 4.775349 6.269289 2.394158
Cr 4.775349 2.194725 -0.385900
C 3.332124 9.169596 10.899179
C 2.587628 4.752865 8.781614
C 6.817422 10.771420 10.778473
C 6.764139 7.694284 8.656863
C 2.786560 4.844293 3.858372
C 2.733276 1.767158 1.736762
C 6.963071 7.785712 3.733621
C 6.218575 3.368982 1.616056
S 1.193837 6.660527 6.971206
S 8.356861 5.878050 5.544029
O 3.277189 8.005385 11.067887
O 0.656057 7.513506 8.218694
O 3.409561 9.278878 9.882442
O 1.276499 4.223970 9.000497
O 6.653618 10.769829 11.832868
O 2.751929 5.919765 9.463905
O 0.442264 7.415249 6.286005
O 0.633412 5.302818 6.700961
O 3.951716 9.384886 7.621533
O 5.539386 7.057702 8.838080
O 3.751199 4.148674 7.866030
O 3.043626 6.410540 6.679157
O 8.207192 10.271188 10.027622
O 6.592866 8.754531 8.323430
O 3.271458 2.083974 6.221542
O 1.343163 5.272304 3.733894
O 8.207536 7.266274 8.781340
O 6.279241 10.454603 6.293693
O 2.957832 3.784046 4.191805
O 1.343506 2.267390 2.487613
O 6.507073 6.128038 5.836078
O 5.799499 8.389904 4.649205
O 4.011313 5.480876 3.677155
O 5.598983 3.153692 4.893701
O 8.917287 7.235759 5.814274
O 9.108435 5.123329 6.229230
O 6.798770 6.618812 3.051330
O 2.897080 1.768748 0.682367
O 8.274200 8.314608 3.514738
O 6.141137 3.259700 2.632793
O 8.894642 5.025071 4.296541
O 6.273510 4.533193 1.447348
