30

Li 0.721126 1.808606 8.393830
Li 0.721126 0.789719 2.964886
Li 5.253129 3.437351 9.028996
Li 5.253129 4.357626 3.600053
Li 6.000016 4.431398 6.464579
Li 6.000016 3.363579 1.035635
Fe 3.404745 0.794391 8.470166
Fe 3.306288 3.453159 6.409805
Fe 3.404745 1.803934 3.041223
Fe 3.306288 4.341818 0.980861
B 1.297417 4.284738 9.817734
B 1.297417 3.510239 4.388790
B 5.272186 1.725777 5.086283
B 5.272186 0.872549 -0.342661
O 0.326946 3.585424 9.260432
O 0.326946 4.209553 3.831488
O 1.707878 0.346409 9.361265
O 1.707878 2.251917 3.932322
O 1.906883 4.034981 5.467079
O 1.906883 3.759995 0.038136
O 2.634261 1.996600 7.341576
O 2.634261 0.601725 1.912632
O 4.131705 4.410325 7.705164
O 4.131705 3.384652 2.276221
O 4.739983 1.553092 9.457941
O 4.739983 1.045234 4.028997
O 4.927637 3.109785 5.246970
O 4.927637 4.685192 -0.181974
O 6.031864 1.088719 5.920626
O 6.031864 1.509606 0.491682
