14

Li 0.731945 1.034637 1.220944
Li 5.091256 7.266654 8.581663
Ni 0.000000 2.695734 3.446354
Ni 2.911598 4.150701 4.901280
Sn 2.911574 1.454950 3.993067
Sn 2.911592 4.150633 2.363193
O 1.505858 2.130218 2.513881
O 1.511658 2.272964 4.813450
O 1.511658 4.522423 3.453382
O 4.250324 3.504724 3.889229
O 1.572871 4.796591 5.913379
O 4.311532 6.028440 4.989140
O 4.311543 3.778933 6.349171
O 4.317297 6.171071 7.288740
