24

Li 0.000000 0.000000 0.000000
Li 0.000000 0.000000 0.000000
Li 0.000000 0.000000 0.000000
Li 0.000000 0.000000 0.000000
Li 0.000000 0.000000 0.000000
Li 0.000000 0.000000 0.000000
V 0.000000 0.000000 0.000000
V 0.000000 0.000000 0.000000
V 0.000000 0.000000 0.000000
Si 0.000000 0.000000 0.000000
Si 0.000000 0.000000 0.000000
Si 0.000000 0.000000 0.000000
O 0.000000 0.000000 0.000000
O 0.000000 0.000000 0.000000
O 0.000000 0.000000 0.000000
O 0.000000 0.000000 0.000000
O 0.000000 0.000000 0.000000
O 0.000000 0.000000 0.000000
O 0.000000 0.000000 0.000000
O 0.000000 0.000000 0.000000
O 0.000000 0.000000 0.000000
O 0.000000 0.000000 0.000000
O 0.000000 0.000000 0.000000
O 0.000000 0.000000 0.000000
