14

Li 2.153285 2.732317 1.047759
Li 0.635239 2.107115 3.492369
Li 1.435247 4.157476 2.197112
Li 4.560463 3.720852 3.819901
Li 4.837951 5.530390 2.222989
Li 3.069654 4.878770 4.983480
Li 4.002253 6.808246 3.618560
Mn 5.405473 2.570221 2.334263
O 0.654490 1.538635 0.392428
O 0.723902 4.281336 0.447037
O 4.393270 3.341431 5.481516
O 4.925568 6.156040 5.355336
F 2.689627 2.693897 2.875926
F 3.065199 5.135686 3.169255
