41

Li 1.446600 6.124599 8.137052
Li 3.058432 2.812631 7.561667
Li 6.248771 5.761539 9.614041
Li 4.592849 6.279491 6.767337
Li 1.743500 6.648483 3.571557
Li 6.654751 10.523580 6.505504
Li 8.303334 5.669227 5.433183
Cr 7.552718 10.317931 9.072117
Fe 3.079934 4.209215 9.266952
Fe 1.290251 1.759545 5.038186
Fe 5.707431 7.802627 4.938672
P 0.377096 3.719433 6.704568
P 4.075466 7.767044 9.295166
P 6.618582 3.635914 8.761360
P 2.188607 8.388039 5.332668
P 4.831990 4.310697 4.854580
P 8.413607 8.391939 7.415321
O 0.818998 2.432050 6.423471
O 8.821459 9.166790 10.128909
O 1.894294 4.478239 7.514812
O 4.160723 7.615581 10.600611
O 2.335949 8.022381 8.794403
O 4.074645 6.397134 8.893773
O 6.382249 9.871025 12.095395
O 5.045100 4.167255 8.460162
O 1.709830 8.459842 6.442543
O 0.743402 7.482777 4.522938
O 7.706974 7.464632 11.731037
O 3.406477 3.183669 5.242826
O 5.495664 8.876941 8.926589
O 1.020037 4.603424 2.365354
O 7.923792 4.665036 9.540023
O 7.085959 11.178562 10.226597
O 3.670802 7.732549 5.597688
O 2.483803 2.134622 2.030127
O 4.964798 5.666272 5.340247
O 6.518456 3.905157 5.264580
O 4.739158 4.508045 3.572370
O 8.779347 7.342130 8.430444
O 6.801934 7.706873 6.638124
O 8.200153 9.747037 7.771770
