96

Li 0.469223 1.901114 5.166453
Li 0.469223 2.623904 12.019819
Li 4.181173 6.452729 5.089824
Li 4.181173 7.122323 11.943190
Li 7.191263 4.082462 1.670669
Li 7.191263 0.442556 8.524034
Li 8.961891 7.014329 8.471808
Li 8.961891 6.560723 1.618442
Mn 1.326182 0.949620 1.707974
Mn 1.326182 3.575397 8.561340
Mn 3.376893 5.495778 1.695955
Mn 3.376893 8.079274 8.549321
Mn 5.941810 0.960462 5.026423
Mn 5.941810 3.564555 11.879788
Mn 8.035638 5.479624 5.038810
Mn 8.035638 8.095428 11.892176
S 0.679938 0.583754 9.964152
S 0.679938 3.941263 3.110786
S 1.538931 6.216577 6.705455
S 1.538931 7.358474 13.558821
S 3.162343 1.684401 6.719580
S 3.162343 2.840616 13.572946
S 3.982585 8.459646 3.011137
S 3.982585 5.115405 9.864490
S 5.319868 3.930765 3.699611
S 5.319868 0.594252 10.552976
S 6.213973 6.239293 0.069171
S 6.213973 7.335759 6.922537
S 7.808149 1.689180 0.033906
S 7.808149 2.835837 6.887272
S 8.637524 5.095875 10.520181
S 8.637524 8.479176 3.666815
O 0.059862 6.380872 6.567741
O 0.059862 7.194180 13.421107
O 0.160220 9.038957 4.792519
O 0.160220 4.536095 11.645885
O 0.128502 4.232547 4.506275
O 0.128502 0.292470 11.359641
O 0.670806 2.089273 9.922347
O 0.670806 2.435744 3.068982
O 1.808446 6.556071 1.123698
O 1.808446 7.018981 7.977064
O 1.883187 8.773945 0.145492
O 1.883187 4.801107 6.998858
O 2.041597 0.068744 9.893754
O 2.041597 4.456273 3.040388
O 2.285598 6.681224 5.558949
O 2.285598 6.893828 12.412315
O 2.359667 2.082214 5.582179
O 2.359667 2.442803 12.435544
O 2.586391 8.947642 3.018563
O 2.586391 4.627409 9.871929
O 2.817014 0.254288 7.063826
O 2.817014 4.270729 0.210460
O 2.859702 2.019126 1.106099
O 2.859702 2.505882 7.959465
O 3.935120 6.917421 3.044496
O 3.935120 6.657631 9.897861
O 4.519571 4.838529 11.283530
O 4.519571 8.736523 4.430164
O 4.528834 4.550258 4.740674
O 4.528834 9.024794 11.594040
O 4.609508 1.822777 6.485234
O 4.609508 2.702241 13.338600
O 4.748860 6.401759 0.218890
O 4.748860 7.173293 7.072256
O 4.825840 4.598341 8.831220
O 4.825840 8.976711 1.977854
O 4.816390 4.266820 2.298938
O 4.816390 0.258197 9.152304
O 5.316379 2.446695 3.749855
O 5.316379 2.078322 10.603221
O 6.505466 6.555139 5.650491
O 6.505466 7.019913 12.503857
O 6.558295 4.800383 13.504807
O 6.558295 8.774669 6.651441
O 6.744942 4.417566 3.660641
O 6.744942 0.107451 10.514007
O 6.982049 6.659685 1.223867
O 6.982049 6.915367 8.077233
O 7.110477 2.191783 1.197903
O 7.110477 2.333235 8.051268
O 7.248560 4.611518 10.568869
O 7.248560 8.963534 3.715503
O 7.437866 4.245471 6.602821
O 7.437866 0.279547 13.456186
O 7.518009 2.018601 5.625243
O 7.518009 2.506416 12.478609
O 8.637869 6.619050 10.532362
O 8.637869 6.956001 3.678997
O 9.181347 4.810374 9.115082
O 9.181347 8.764678 2.261716
O 9.125702 0.005539 8.840249
O 9.125702 4.519479 1.986883
O 9.295819 1.826912 0.144567
O 9.295819 2.698105 6.997933
