17

Mn 1.664468 1.956606 3.119970
V 0.162618 0.371064 4.245834
V 5.113823 10.316878 9.019241
V 2.644288 11.897727 11.246181
V 2.661910 7.781595 8.248181
O 1.800057 4.644462 4.358767
O 1.258046 2.434778 4.637599
O 0.689796 3.527690 5.624604
O 4.682221 7.034267 7.457522
O 1.761192 9.203287 7.489105
O 3.967795 8.146745 8.377505
O 1.266608 7.391849 7.834401
O 3.073588 5.254459 8.272456
O 0.716232 8.024333 8.670815
O 4.498947 11.322603 10.345056
O 3.787117 12.360174 11.205966
O 3.300401 9.933444 11.479680
