36

Mn 1.198009 1.629443 1.914339
Mn 3.021700 4.109890 4.828476
Mn 5.417718 7.368775 8.657154
Mn 7.241409 9.849223 11.571290
Ni 0.000000 0.000000 0.000000
Ni 4.219709 5.739333 6.742815
P 0.360709 5.705897 5.171304
P 3.859000 2.192092 7.206043
P 6.329563 6.450344 4.479691
P 2.109854 5.028322 9.005939
P 4.580418 9.286574 6.279587
P 8.078709 5.772769 8.314326
O 0.969909 2.786184 4.773776
O 2.648863 5.039554 3.316625
O 0.484237 6.954642 4.224048
O 4.293233 2.935580 4.552458
O 0.073524 6.037176 6.284354
O 2.051859 5.339765 5.502889
O 2.167850 1.477491 7.542053
O 3.735472 3.609653 6.506254
O 1.570846 3.603534 8.600454
O 4.969146 5.680739 5.178993
O 0.749437 5.844291 8.725793
O 3.249800 8.890323 5.269485
O 5.189617 2.588343 8.216144
O 7.689981 5.634375 4.759837
O 3.470272 5.797927 8.306636
O 6.868572 7.875132 4.885175
O 4.703946 7.869013 6.979376
O 6.271568 10.001175 5.943577
O 6.387559 6.138901 7.982741
O 8.365894 5.441490 7.201276
O 4.146185 8.543086 8.933172
O 7.955181 4.524024 9.261581
O 5.790555 6.439112 10.169004
O 7.469509 8.692482 8.711854
