24

Mn 2.718202 1.444861 4.638823
Mn 7.147549 4.334583 0.147305
Ni 2.293600 4.334583 2.211711
Ni 7.572151 1.444861 2.574417
P 0.947931 1.444861 1.963863
P 4.039127 4.334583 4.417824
P 5.826624 1.444861 0.368303
P 8.917820 4.334583 2.822264
O 0.525578 4.334583 3.120623
O 1.173778 1.444861 3.484684
O 1.721376 0.277176 1.214221
O 1.721376 2.612546 1.214221
O 3.279997 5.541771 3.714334
O 3.279997 3.127396 3.714334
O 3.945028 4.334583 1.141489
O 4.351566 1.444861 0.845991
O 5.514185 4.334583 3.940136
O 5.920723 1.444861 3.644638
O 6.585754 0.237674 1.071794
O 6.585754 2.652048 1.071794
O 8.144375 3.166899 3.571906
O 8.144375 5.502268 3.571906
O 8.691973 4.334583 1.301443
O 9.340173 1.444861 1.665504
