68

Mo 6.969269 2.971188 0.152952
Mo 0.685971 10.158755 9.236016
Mo 3.141649 3.593784 4.835735
Mo 4.513591 9.536160 4.553232
P 5.426463 1.764428 6.855987
P 5.363544 7.608710 2.117783
P 6.119316 1.043739 2.588401
P 6.056397 8.329400 7.227464
P 1.535924 12.086205 6.800566
P 3.140432 8.438615 7.327724
P 6.974819 5.411861 6.976441
P 2.228777 11.365515 2.532981
P 0.680421 7.718083 2.412526
P 4.514808 4.691329 2.061244
P 1.598843 4.800544 2.161503
P 3.147199 1.153111 2.281958
P 0.687188 1.873643 6.744028
P 6.968052 11.256300 2.644940
P 2.291696 5.521233 7.271185
P 4.508041 11.976832 7.107010
O 6.146836 2.008632 3.684552
O 4.504611 7.892173 3.381248
O 0.676991 11.802742 8.064031
O 1.051225 0.405702 6.274680
O 3.150629 5.237771 6.007720
O 0.810208 11.096378 3.190175
O 1.358882 6.328252 1.877718
O 6.978249 1.327201 1.324936
O 5.336024 8.573603 1.021632
O 1.521096 2.839718 5.966239
O 4.539657 11.133745 5.822710
O 4.363035 2.553656 6.141183
O 6.604015 12.724241 3.114288
O 4.508125 4.579133 3.565863
O 0.535415 4.011316 1.446699
O 3.115583 1.996198 3.566257
O 6.296358 6.801691 7.511250
O 5.186502 0.236720 6.572202
O 2.776395 6.970674 7.797071
O 1.701323 4.503859 3.653874
O 3.292205 10.576287 3.247785
O 7.119825 9.118627 7.942268
O 6.341042 4.903902 5.758913
O 2.306524 9.404689 8.105512
O 5.348716 3.725254 1.283455
O 4.637828 8.598537 7.884659
O 0.831129 5.899008 6.701900
O 5.528943 2.061112 8.348358
O 6.845032 2.033566 6.198792
O 6.974735 11.144105 1.140321
O 1.314198 8.226041 3.630055
O 6.134144 10.290225 3.422729
O 2.996491 12.463979 7.369851
O 3.147115 8.550810 5.823104
O 1.508404 11.121311 5.704415
O 4.658749 0.665964 2.019116
O 5.141818 11.468874 8.324538
O 5.953916 8.626084 5.735094
O 2.126296 11.068831 1.040610
O 6.824110 7.230935 2.687068
O 4.878845 6.159269 1.591896
O 0.680505 1.985838 8.248647
O 2.513422 1.661069 1.064429
O 2.319216 4.556340 8.367336
O 2.468738 12.893223 2.816766
O 6.943203 4.568774 8.260741
O 3.017412 4.531406 1.504309
O 0.712037 8.561169 1.128226
