24

Cu 2.849641 1.558175 4.501170
Cu 7.151275 4.674524 0.262187
Sb 2.207762 4.674524 2.263275
Sb 7.793153 1.558175 2.500082
P 1.004912 1.558175 2.027580
P 4.072013 4.674524 4.487682
P 5.928903 1.558175 0.275675
P 8.996003 4.674524 2.735777
O 0.508497 4.674524 3.420355
O 1.148935 1.558175 3.544188
O 1.694175 0.314945 1.351799
O 1.694175 2.801405 1.351799
O 3.286061 5.861000 3.739822
O 3.286061 3.488049 3.739822
O 3.856383 4.674524 1.004074
O 4.457418 1.558175 0.571939
O 5.543497 4.674524 4.191418
O 6.144532 1.558175 3.759283
O 6.714855 0.371699 1.023535
O 6.714855 2.744650 1.023535
O 8.306740 3.431294 3.411558
O 8.306740 5.917755 3.411558
O 8.851980 4.674524 1.219169
O 9.492419 1.558175 1.343001
