24

Mn 3.945043 2.312613 1.985600
Mn 4.961412 0.944525 6.586405
Mn 4.960984 -1.622747 6.574992
Cr 1.003166 3.787660 1.965347
Cr 1.003226 1.239763 1.954436
Cr 2.024396 -0.138244 6.572952
Te 1.963064 2.448180 4.512659
Te 3.958681 -0.270629 9.144222
O 1.028013 3.765159 5.520607
O 0.252315 2.565052 3.197661
O 2.046730 2.442364 1.035123
O 5.902806 2.178784 2.855536
O 5.903395 2.178829 7.449227
O 1.028400 1.259069 5.509868
O 2.874398 3.505096 3.197523
O 2.874571 1.266740 3.187949
O 2.038689 -0.139304 0.898706
O 3.855796 2.318778 5.551445
O 3.103456 0.912073 7.816622
O 3.102979 -1.336096 7.807388
O 4.045027 -0.276401 5.670266
O 4.914279 0.916749 0.945476
O 5.719268 -0.390736 7.875008
O 4.914440 -1.588700 0.934628
