33

Mn 1.342553 1.867066 2.192284
Mn 5.700626 7.927763 9.308671
Mn 7.468107 10.385769 12.194828
S 0.416856 5.714803 5.293550
S 4.004170 2.613323 7.501532
S 6.650315 7.068602 5.283545
S 2.213826 5.175435 9.185328
S 4.759007 9.682957 6.925191
S 8.479216 6.630509 9.121454
O 0.981083 2.677410 4.804471
O 2.574969 5.193507 3.564039
O 8.795241 12.040732 9.774251
O 4.532425 3.377592 4.839335
O 0.212856 5.327336 6.443675
O 2.151330 5.819447 5.382440
O 3.253523 3.616639 6.773855
O 2.911433 8.895927 10.848723
O 5.583776 5.845614 5.787267
O 0.368280 5.134504 8.631717
O 2.508522 3.937481 8.888429
O 3.053466 8.763694 6.201880
O 5.780384 3.452185 8.194239
O 6.320353 8.344784 5.469211
O 8.563799 7.253143 12.477105
O 3.372949 6.435496 8.659951
O 5.979321 10.513008 6.249639
O 5.490945 8.595490 7.686758
O 6.655467 6.551526 8.995180
O 8.536984 6.906026 7.932197
O 4.233142 8.899915 9.521637
O 8.647059 5.205308 9.603739
O 6.211274 7.008340 10.842622
O 7.890555 9.589880 9.575301
