14

Li 0.815169 2.318164 7.747308
Li 1.462000 -0.720120 2.571347
Li 1.480516 -0.708903 7.674109
Li 2.160100 1.225067 9.862869
Fe 0.805504 2.301025 2.469251
Fe 2.160374 1.217357 4.922092
O 0.400247 1.159799 3.740555
O 2.564624 2.356914 3.651353
F 0.371204 1.092107 8.744972
F 1.050034 3.049198 5.917224
F 1.051063 2.944542 11.149880
F 1.949258 0.586507 6.476158
F 1.923363 0.470883 1.468905
F 2.604798 2.463502 8.865901
