41

Li 0.414002 1.911781 6.946567
Li 7.787930 2.004527 11.893434
Li 4.459412 4.246836 6.513272
Li 3.423506 -0.865700 8.027076
Li 0.394520 1.326592 2.829929
Li 8.483510 -0.568295 9.483135
Li 7.584077 1.252106 7.598138
Fe 6.200079 -0.415331 10.784677
Fe 2.606282 -0.174588 5.673782
Fe 2.560198 3.657864 3.396829
Co 6.152917 3.417209 8.508337
P 1.817676 4.811373 8.176861
P 1.814528 6.398084 5.157614
P 4.459483 1.282946 8.761923
P 4.378697 1.956111 5.386402
P 7.008512 -3.154918 8.981987
P 7.009352 -1.579844 5.961520
O 1.672174 4.422226 9.198706
O 1.886240 6.169695 8.684358
O 0.006438 4.613797 6.964379
O 5.078381 4.259233 11.415181
O 2.025385 6.511634 6.493961
O 0.262026 7.251574 4.513626
O 3.450540 2.123299 9.617975
O 3.506892 4.164775 7.799302
O 1.290972 5.138729 4.374001
O 2.840291 0.759309 7.516929
O 5.822035 1.866556 8.576658
O 5.658147 0.218223 9.266993
O 3.164080 3.032656 4.920715
O 2.990366 1.228968 5.376393
O 5.888822 2.431609 6.658168
O 7.470703 -1.882550 9.775106
O 5.326177 -0.774636 6.265733
O 5.527121 1.202816 4.551817
O 8.536854 -3.988110 9.732165
O 7.139140 -3.305114 7.730838
O 3.687786 -1.023650 2.583439
O 8.784067 -1.399489 7.189990
O 6.788591 -2.891224 5.483736
O 7.320636 -1.286845 4.917607
