15

Li 2.958923 0.000000 1.467079
Li 2.958923 0.000000 3.554934
Li 2.958923 2.946514 5.028191
Cr 0.000000 0.000000 2.087855
Cr 0.000000 2.946514 1.473257
Cr 0.000000 2.946514 3.561112
Co 0.000000 0.000000 0.000000
O 1.261430 1.346852 1.363139
O 1.261430 1.346852 3.565851
O 1.261430 4.455459 2.917443
O 1.336474 4.372309 5.003916
O 4.581371 1.520720 5.052466
O 4.656415 1.437569 7.138939
O 4.656415 4.546177 6.490531
O 4.656415 4.546177 8.693243
