18

K 6.372121 6.789472 1.668741
K 0.138414 0.147480 4.935424
K 0.000000 3.247777 0.184991
K 3.255268 0.220699 3.117091
Li 2.316201 2.467904 1.653610
Li 4.194334 4.469048 4.950555
Mn 1.244144 3.868913 3.659093
Mn 2.717243 5.438496 0.374650
Mn 3.793292 1.498456 6.229515
Mn 5.266391 3.068039 2.945072
O 0.749590 2.077252 3.002016
O 2.031105 0.885569 0.298296
O 1.887508 4.456034 1.831553
O 2.172487 4.759679 5.122554
O 4.338048 2.177273 1.481611
O 4.623027 2.480918 4.772612
O 4.479430 6.051383 6.305869
O 5.760945 4.859700 3.602149
