66

Ba 0.000140 4.823202 2.902686
Ba 9.315128 -1.355115 8.863305
Ba 3.784594 1.383391 2.903542
Ba 5.589939 2.002229 8.850740
Ba 3.725515 6.168663 8.858588
Ba 5.531642 -2.775105 2.895756
Li 0.000606 0.003961 2.764732
Li 9.315035 3.360117 8.760120
Ti 0.000028 6.039837 10.764374
Ti 0.000140 6.063974 7.024646
Ti 0.000168 2.017206 1.058246
Ti 2.318477 0.852410 6.961815
Ti 2.298066 6.895917 1.034106
Ti 7.017230 2.533832 1.026182
Ti 6.995599 -3.507220 6.954246
Nb -0.000224 2.047645 4.843948
Nb 3.068951 3.845967 0.072079
Nb 3.110126 3.824917 6.003974
Nb 2.342380 0.842624 10.746452
Nb 2.337257 6.893311 4.845985
Nb 6.979948 2.536683 4.838524
Nb 6.246261 -0.410324 0.064061
Nb 6.205263 -0.427635 5.996344
Nb 6.972775 4.564416 10.753620
O -0.000009 6.467195 0.883883
O 0.000252 6.427104 5.033905
O 9.315286 1.730031 8.862798
O 1.569893 4.773540 7.099578
O 1.556852 4.766218 10.644728
O 9.315277 -3.047978 2.938288
O -0.000177 1.618983 6.803080
O 9.315473 -3.018706 10.903684
O 2.912523 5.261245 1.221337
O 2.941793 5.240372 4.708155
O 1.565599 3.085776 1.197376
O 1.574700 3.125384 4.702067
O 2.929506 2.437627 10.603910
O 2.906748 2.412775 7.091688
O 4.855786 4.290638 7.096046
O 4.794555 4.313057 10.586853
O 1.834680 0.673943 0.905018
O 1.908478 0.695572 5.020888
O 1.866949 0.677275 8.840345
O 4.861795 3.127820 1.152948
O 4.808565 3.117215 4.707025
O 1.850209 7.146843 6.815083
O 1.889894 7.127342 10.923277
O 1.867443 7.127869 2.953149
O 4.520601 0.293102 10.579128
O 4.460721 0.278865 7.087558
O 7.448551 2.707568 2.945578
O 7.467099 2.724549 6.807359
O 7.425150 2.709444 10.915647
O 4.454079 -0.883071 1.145062
O 4.507625 -0.901244 4.698228
O 6.373819 0.966964 4.700495
O 6.403443 0.983660 1.213757
O 7.746380 0.312022 7.090703
O 7.758304 0.302910 10.636583
O 6.409405 -1.866058 7.084697
O 6.385604 -1.837753 10.596296
O 7.741350 -1.335194 4.694301
O 7.750163 -1.376250 1.189232
O 7.448002 4.334185 8.847957
O 7.405364 4.359103 5.029399
O 7.480960 -3.751360 0.897173
