34

Sn 1.406796 5.990850 10.051554
Sn 5.884646 -1.600641 4.893720
P 0.104180 2.080142 7.170227
P 1.957847 4.315082 7.237974
P 5.142756 3.389957 4.572333
P 3.593405 0.753073 4.142081
P 3.698037 3.637135 10.803194
P 2.148679 1.000254 10.372938
P 5.333595 0.075126 7.707300
P 7.187262 2.310067 7.775048
O 0.240829 4.366845 3.417059
O 0.763049 1.540968 1.916421
O 1.326219 4.426560 5.790243
O 1.063311 5.149544 8.088291
O 1.604015 2.847110 7.100092
O 0.409371 0.688771 6.605795
O 3.266012 0.419201 2.557501
O 2.230824 0.553197 4.557707
O 3.700247 4.506907 7.663580
O 4.102406 2.273626 4.635941
O 2.214345 4.318342 10.389870
O 5.441727 4.427593 5.837878
O 1.849715 -0.037392 9.107393
O 5.077097 0.071866 4.555405
O 3.189036 2.116583 10.309334
O 3.591196 -0.116699 7.281694
O 5.060618 3.837012 10.387567
O 4.025430 3.971007 12.387773
O 6.882072 3.701437 8.339480
O 5.687427 1.543098 7.845182
O 6.228131 -0.759336 6.856983
O 5.965224 -0.036351 9.155031
O 6.528393 2.849241 13.028853
O 7.050613 0.023364 11.528216
