11

Li 2.186699 0.673105 2.426646
Li 2.186699 3.824482 4.002335
Li 5.170091 3.824482 7.368604
V 0.010052 6.123687 3.080860
F 1.277912 1.342800 1.241226
F 1.277912 4.784440 2.962046
F 1.292593 1.410326 3.550907
F 1.436417 4.617010 5.026305
F 4.472168 1.410326 6.861681
F 4.472168 4.768932 8.540984
F 4.536095 4.784440 6.250576
