32

Li 3.043656 3.019959 8.953917
Li 3.043751 0.126140 4.415459
Li 6.216663 6.167730 0.121987
Li 6.216517 3.270990 4.660333
Cr 1.577148 1.554961 1.810699
Cr 1.577148 1.591387 6.348579
Cr 4.748652 4.701082 7.265502
Cr 4.748348 4.737572 2.727015
P 1.572238 4.730157 6.805885
P 1.572188 4.708442 2.267606
P 4.743749 1.562282 6.808878
P 4.743743 1.583953 2.270509
O 0.330924 4.792601 7.727972
O 0.330842 4.645989 3.189399
O 1.636004 1.512487 3.496866
O 1.635909 1.633622 8.034621
O 1.647396 3.462256 1.351740
O 1.489488 5.945982 1.335124
O 1.489520 3.492622 5.873561
O 1.647333 5.976299 5.890263
O 2.822090 4.803672 3.172212
O 2.822065 4.634809 7.710760
O 3.502301 1.646340 1.348841
O 3.502422 1.499873 5.887217
O 4.660897 0.346274 3.202888
O 4.818951 2.830271 3.186233
O 4.807248 4.779718 1.041028
O 4.807381 4.658728 5.578442
O 4.818983 0.315951 7.724786
O 4.660847 2.799828 7.741500
O 5.993316 1.657379 5.904049
O 5.993430 1.488769 1.365666
