16

Mn 0.000000 3.451656 -0.986089
Mn 0.000000 0.000000 0.000000
P 1.821863 0.860044 2.448615
P 3.368630 3.943348 -0.456553
H 0.178075 2.255525 0.940181
H 5.012417 2.547867 1.051881
O 0.249351 4.921100 2.537802
O 1.011783 2.290313 2.443236
O 1.756016 3.825334 -0.143614
O 1.185633 -0.026677 1.414038
O 1.695926 0.176917 3.681491
O 3.494567 4.626476 -1.689429
O 4.004860 4.830069 0.578024
O 3.434476 0.978058 2.135676
O 4.178710 2.513079 -0.451174
O 4.941141 -0.117708 -0.545740
