34

P 7.405261 -0.288333 10.587453
P 2.021979 4.400798 7.121856
P 5.195914 3.404664 4.768099
P 3.605586 0.944989 4.300760
P 3.846189 3.500490 10.871896
P 2.255861 1.040816 10.404557
P 5.429795 0.044682 8.050800
P 0.046514 4.733813 4.585203
W 0.000000 3.499599 1.361685
W 0.000000 0.000000 4.446777
O 0.362514 4.485991 3.295228
O 1.029709 1.962657 1.941008
O 0.802660 5.326568 7.557269
O 1.474579 4.166284 5.519824
O 1.518336 3.025363 7.202341
O 0.146979 0.888489 6.405951
O 3.130677 0.487023 2.752393
O 3.712534 4.646386 7.726874
O 2.295124 0.599906 4.752260
O 3.760359 2.456822 4.699263
O 2.276331 4.055516 10.337445
O 5.637349 4.429949 5.959014
O 1.814425 0.015531 9.213642
O 5.175444 0.389964 4.835211
O 3.691415 1.988658 10.473402
O 5.156650 3.845574 10.420396
O 3.739241 -0.200906 7.445782
O 4.321098 3.958456 12.420263
O 7.304796 3.556991 8.766705
O 5.933438 1.420117 7.970315
O 5.977195 0.279196 9.652832
O 6.649114 -0.881089 7.615387
O 6.422066 2.482823 13.231648
O 7.089261 -0.040511 11.877428
