26

Fe 1.343602 1.225906 2.526655
Fe 5.980675 6.730441 1.980406
P 1.086710 4.117840 4.116092
P 2.205567 5.754925 -0.471638
P 2.683117 5.860569 2.277173
P 4.641160 2.095779 2.229882
P 5.118711 2.201422 4.978700
P 6.237567 3.838507 0.390970
O 0.173585 2.319636 1.438372
O 1.077072 2.587895 3.950004
O 1.130422 6.836133 -0.207084
O 1.680936 7.017930 2.368384
O 1.419716 4.444602 5.588232
O 2.357626 4.714986 3.312910
O 2.467937 5.037120 0.945995
O 3.170050 1.719063 2.065525
O 3.863644 1.843900 5.649926
O 3.460633 6.112448 -1.142865
O 4.154228 6.237284 2.441537
O 4.856340 2.919227 3.561066
O 4.966651 3.241361 1.194152
O 5.904562 3.511746 -1.081170
O 5.643341 0.938418 2.138677
O 6.193856 1.120214 4.714146
O 6.247206 5.368452 0.557058
O 7.150692 5.636711 3.068690
