46

Li 3.958868 0.731920 3.567850
Li 1.258578 3.666059 9.148248
Li 2.591024 3.784266 6.290948
Li 3.914496 3.743555 3.538220
Li 3.822110 5.191911 8.187270
Li 0.002635 8.244258 7.290458
Li 1.335081 8.126050 4.433158
Li 3.866482 8.203546 8.216900
Mn 0.042043 0.647368 2.385640
Mn 2.565062 0.727165 6.349727
Mn 1.348947 2.349095 4.457507
Mn 3.810651 2.266165 8.232875
Mn 5.168468 3.706519 0.628519
Mn 0.028598 5.187157 7.231679
Mn 2.551616 5.107358 1.532733
Mn 1.244713 6.809086 9.123899
Mn 3.970327 6.726156 3.522245
Mn 2.612510 8.166511 1.463568
Ni 0.014156 2.258548 7.298414
Ni 2.570342 2.183103 1.456963
Ni 0.023317 6.643094 2.461411
Ni 2.579503 6.718539 6.282992
O 0.777672 0.896226 5.786697
O 1.885015 0.661952 2.767449
O 3.397123 0.665921 0.204167
O 2.064138 2.195939 7.661512
O 0.440414 2.298367 1.093437
O 4.330229 0.870813 6.870208
O 3.138006 2.154684 4.936519
O 0.592117 3.753314 5.979016
O 2.025897 3.558858 2.907351
O 4.725284 2.249387 1.979963
O 3.164010 3.626231 0.021007
O 0.708645 5.121943 1.150924
O 1.815987 5.356217 7.794709
O 4.577876 3.810946 6.765896
O 0.529522 6.655930 5.919894
O 3.450750 5.330804 4.884912
O 4.383855 5.125912 1.887921
O 2.153246 6.758358 2.824936
O 0.567762 8.018850 1.011022
O 4.642972 6.614674 6.818601
O 3.055694 6.709378 0.112124
O 2.001543 8.213305 7.602390
O 3.203102 8.270937 4.989224
O 4.616968 8.086222 2.071080
