32

V 4.055650 4.892388 0.686179
V 3.925750 2.537999 9.015744
V 2.647844 2.483391 3.241458
V 2.589160 4.828285 12.515715
V 1.320748 4.831786 6.652393
V 1.319222 2.509205 14.803124
V 0.004916 0.063483 0.036026
V 5.260335 5.005508 6.558086
O 4.987010 4.064905 -0.968282
O 2.223372 3.950364 13.806927
F 4.893678 6.453076 -0.042752
F 5.143472 6.439556 7.994040
F 2.840485 5.847336 2.697692
F 4.903221 2.603670 2.595823
F 4.864336 4.025568 8.116300
F 4.856821 5.014459 11.752581
F 2.233914 4.941836 0.340083
F 2.973916 3.503783 1.753884
F 3.043832 5.861608 10.916390
F 3.000058 4.914749 7.217675
F 2.527944 3.926097 4.688829
F 2.725270 3.507569 10.937750
F 2.257029 1.536088 4.800924
F 2.243598 2.463522 8.452783
F 3.025232 2.531878 15.323343
F 0.382325 3.338591 7.543323
F 0.381357 2.403336 3.909069
F 0.409209 4.844408 13.030440
F 2.513150 1.560130 12.857474
F 0.162936 3.391741 16.756576
F 0.101794 0.939336 7.669724
F 0.392667 0.998744 15.719762
