38

V 0.602882 2.714741 6.297700
V 2.289010 5.963046 4.645796
V 3.473699 1.598172 3.913572
V 1.270968 5.561362 1.951770
V 5.170013 4.551153 2.185635
V 4.065471 8.942863 2.853024
V 4.109535 4.369933 -0.445990
V 3.004993 8.761643 0.221398
V 6.904038 7.751434 0.455264
V 4.701307 11.714624 -1.506538
V 5.885996 7.349750 -2.238762
V 7.572124 10.598055 -3.890666
F 0.040556 6.202552 5.398826
F 1.384037 1.857674 4.681112
F 1.008518 4.447153 3.467154
F 2.411422 7.129667 3.209262
F 3.729054 2.842044 2.635378
F 1.320926 6.950764 0.664452
F 4.536057 5.687149 3.830355
F 2.561180 2.467755 -0.113590
F 3.447891 10.280491 4.348930
F 3.502590 5.173370 1.345548
F 2.597706 9.706123 1.964462
F 1.139342 9.017731 -0.424261
F 2.196927 4.610608 -1.199613
F 5.978080 8.702188 3.606646
F 7.035664 4.295065 2.831294
F 5.577300 3.606673 0.442572
F 4.672417 8.139426 1.061485
F 4.727116 3.032305 -1.941896
F 5.613826 10.845041 2.520624
F 3.638949 7.625647 -1.423321
F 6.854080 6.362032 1.742582
F 4.445953 10.470752 -0.228344
F 5.763584 6.183129 -0.802228
F 7.166488 8.865643 -1.060121
F 6.790969 11.455122 -2.274078
F 8.134450 7.110244 -2.991792
