18

Li 1.058618 2.373242 3.381008
Li 2.590917 -0.553449 2.559741
Li 4.123222 1.542679 3.567952
V 0.611969 -0.036410 4.816577
V 4.569865 3.952332 2.132385
Fe 0.000000 2.511410 0.914740
Fe 3.578466 4.085860 6.848079
Fe 1.603368 -0.169939 0.100883
O 0.218388 1.120126 6.620728
O 0.575800 3.836170 5.025244
O 1.671499 3.588766 7.612413
O 1.024563 1.042010 1.715223
O 2.363958 0.475416 4.265360
O 2.817876 3.440506 2.683602
O 4.157271 2.873912 5.233740
O 3.510335 0.327156 -0.663451
O 4.606034 0.079752 1.923719
O 4.963446 2.795796 0.328234
