24

Ti 1.928815 2.376457 4.491738
Ti 3.857734 -0.258460 9.009622
Mn 0.973628 3.681389 1.923161
Mn 0.973617 1.199532 1.923222
Mn 3.839402 2.248415 1.923052
Mn 1.947129 -0.130439 6.441016
Mn 4.812973 0.918465 6.441009
Mn 4.812938 -1.563380 6.440980
O 0.965001 3.693075 5.419217
O 0.230884 2.490200 3.022359
O 1.928803 2.376468 0.935468
O 0.000017 -0.000004 2.856301
O 0.000000 0.000030 7.374331
O 0.964966 1.188934 5.419133
O 2.777876 3.422353 3.022295
O 2.777853 1.216720 3.022308
O 1.930071 -0.129265 0.901201
O 3.856513 2.247286 5.419152
O 3.008713 0.901259 7.540217
O 3.008708 -1.304408 7.540194
O 3.857705 -0.258445 5.453315
O 4.821525 0.929007 0.901102
O 5.555677 -0.372248 7.540138
O 4.821566 -1.575151 0.901001
