18

Li 2.747438 3.246991 3.646115
Li 2.747438 6.363850 3.646115
Li 3.345019 0.357645 1.154446
Li 3.345019 2.845969 1.154446
Li 4.712012 4.805420 1.453515
Li 5.159897 4.805420 3.786256
Li 6.374481 0.270885 1.251036
Li 6.374481 2.932729 1.251036
Co 1.623209 4.805420 1.129900
Co 4.880861 1.601807 3.556728
O 6.174214 1.601807 4.725468
O 1.726273 6.309709 2.062621
O 1.726273 3.301132 2.062621
O 3.341493 1.601807 4.556021
O 3.183845 4.805420 0.087828
O 4.747220 3.151510 2.540154
O 4.747220 0.052104 2.540154
O 6.343358 4.805420 0.428945
