36

Li 1.340071 3.724359 4.076046
Li 4.285832 7.195350 8.260180
Cu 1.480758 1.118448 6.138113
Cu 6.972881 7.589818 2.164943
P 0.609206 5.937623 6.384782
P 1.422710 3.671726 7.948127
P 1.880078 7.435092 2.306072
P 3.952092 1.951761 4.483537
P 4.356234 7.128297 3.910987
P 6.467657 1.458791 5.998368
P 6.622246 5.098004 0.439813
P 7.633656 2.832688 1.917037
O 0.093096 2.082781 4.018180
O 0.410464 5.131769 5.150794
O 1.263401 1.062762 2.000438
O 1.639160 2.890728 6.623659
O 1.486142 5.187194 7.457429
O 0.686868 6.491413 2.038466
O 1.330787 7.250142 6.165041
O 3.323005 1.109407 5.580990
O 2.316245 3.504443 0.863301
O 3.262957 3.186925 4.123712
O 2.822938 6.762341 3.380368
O 4.185843 1.037580 3.179895
O 2.662058 7.784822 1.096604
O 5.507448 2.197892 4.971275
O 5.222800 5.496215 0.062230
O 4.707510 6.322071 5.033572
O 5.196777 7.082668 2.602123
O 5.708558 8.699481 8.269063
O 6.931323 1.502075 2.106607
O 6.685521 3.586015 0.890245
O 7.683217 2.388032 6.235891
O 7.602163 5.063030 7.375794
O 6.985760 7.805417 6.253994
O 7.354478 5.859692 1.571301
