60

Li 0.042807 0.032226 12.228471
Li 0.049561 2.996311 4.810908
Li 0.992557 2.216103 7.728020
Li 1.958037 4.387619 3.064196
Li 3.777372 2.744026 8.946665
Li 2.811893 6.457380 -1.354371
Li 4.720368 1.963818 11.863776
Li 4.727122 4.927903 4.446213
Li 5.656785 4.168935 7.282119
Li 6.745031 3.431018 10.210883
Li 5.749276 7.099714 -0.140139
Li 6.652540 6.385108 2.668282
Mn 2.407937 1.025002 5.968267
Mn 2.361993 3.935127 10.706417
Ni 0.468308 2.550147 0.120147
Ni 1.451860 1.782819 3.031546
Ni 0.501094 5.466501 4.903925
Ni 1.449051 4.740472 7.832361
Ni 3.318070 3.177309 1.352654
Ni 4.301622 2.409982 4.264053
Ni 3.320878 6.104526 6.167949
Ni 5.196857 4.560131 -0.315189
Ni 4.268835 5.378498 9.096385
Ni 6.200908 3.799976 2.601259
Ni 7.204959 3.039822 5.517707
Ni 5.244778 7.566768 4.512138
Ni 6.200908 6.742411 7.409314
Ni 7.157039 5.918055 10.306490
O 0.641231 1.083172 1.580965
O 0.426745 1.197263 6.270141
O 0.264208 4.021157 -1.364587
O 1.380379 3.298406 1.734646
O 0.493279 3.939251 6.241978
O 2.540396 2.430795 -0.049295
O 2.229534 2.529334 4.433495
O 1.707055 3.227081 9.215167
O 3.389550 1.661722 2.649554
O 3.062875 1.733047 7.459518
O 1.587509 6.207412 1.786925
O 1.252713 6.188808 6.347361
O 3.182421 4.637587 -0.077100
O 2.638847 5.351083 4.495338
O 2.131082 5.493915 9.504973
O 4.128698 3.876957 2.803235
O 3.517216 4.656190 7.652950
O 5.291279 2.986546 1.035704
O 5.253837 3.226591 5.799135
O 4.343185 3.762866 10.404543
O 6.255095 2.257163 3.940668
O 5.902242 2.433441 8.605506
O 4.505721 6.823842 3.074413
O 4.276650 6.905747 7.758333
O 6.146722 5.342790 1.261850
O 5.326378 5.970068 5.882276
O 4.972060 6.094541 10.581872
O 7.110538 4.613407 4.166813
O 6.499575 5.166512 8.887496
O 7.147980 4.373362 11.693867
O 7.429757 7.390281 4.236755
O 7.075439 7.514754 8.936352
