33

Li 2.276917 -0.290319 5.313923
Li 2.148877 1.875906 3.603482
Li 4.528906 3.771805 3.503940
Li 4.453537 5.884045 1.836276
Li 6.535569 3.446938 5.100172
Li 6.610945 1.334691 -0.689346
Fe 2.212894 4.047561 5.683663
Fe 2.173467 6.213088 3.974961
Fe 2.252321 1.882033 -0.064818
Ni 6.608834 5.624369 7.106728
Ni 4.429180 -0.564364 3.121098
Ni 4.455649 1.594366 1.497378
Ni 4.427175 3.772254 7.248226
Ni 6.635302 1.273573 3.033091
Ni 6.637301 3.446482 1.355883
O 0.095683 2.040682 7.489590
O 0.074313 4.094719 5.989014
O 0.013649 6.381524 4.095603
O 2.371339 3.964628 7.405863
O 2.438198 6.165877 5.795943
O 4.432473 5.778077 7.254670
O 1.987597 1.929237 5.571371
O 2.054455 4.130492 3.961453
O 4.351474 4.000395 5.378302
O 2.178758 1.760688 1.720353
O 4.593647 1.437327 3.171605
O 4.652605 3.614329 1.632182
O 2.247030 -0.175099 -0.260121
O 4.330111 -0.455094 1.427815
O 4.412145 1.713596 -0.185462
O 6.470836 -0.728111 2.982587
O 6.632010 1.440665 1.349439
O 6.411877 3.604406 -0.485252
