30

Li 4.622854 0.583632 0.438732
Li 1.791195 3.063781 4.344538
Li 0.847061 4.916558 1.411067
Li 3.686988 3.466456 8.502610
Li 3.675762 7.390018 5.322832
Li 1.781260 7.798224 9.477949
Fe 1.736565 1.746612 1.554756
Fe 4.505791 3.263396 5.770343
Fe 3.731049 6.071481 2.530894
Fe 0.962605 7.594856 6.744295
Si 3.722470 0.049627 6.149005
Si 4.558557 2.866901 2.707663
Si 1.747206 4.380240 7.122600
Si 0.907734 7.200495 3.680178
O 0.954584 0.019097 0.903782
O 2.113850 0.112391 5.750098
O 3.811045 1.793610 1.716199
O 0.642198 2.462522 3.023842
O 4.280253 1.562143 6.649400
O 3.728298 3.060958 4.094420
O 4.512407 4.342747 1.882472
O 0.876134 3.798437 5.875587
O 1.679173 3.441541 8.436414
O 3.356235 4.441529 6.726118
O 1.656000 6.126403 2.690034
O 4.823409 6.780150 4.005065
O 1.188126 5.892788 7.622432
O 1.737713 7.394297 5.067676
O 4.594355 8.121824 6.855440
O 3.788960 7.768038 9.414499
