33

Ni 1.349422 1.876867 2.203750
Ni 5.751627 7.999750 9.393020
Ni 7.579838 10.542550 12.378685
S 0.370033 5.775134 5.351706
S 4.074030 2.616614 7.609875
S 6.758852 7.190021 5.333975
S 2.215731 5.239321 9.251140
S 4.836047 9.773335 6.989734
S 8.536660 6.668795 9.216709
O 0.973816 2.732068 4.819043
O 2.646930 5.232525 3.600064
O 8.912703 12.167507 9.908676
O 4.530610 3.372862 4.892927
O 0.228794 5.406717 6.498350
O 2.170256 5.933521 5.443570
O 3.269869 3.642548 6.885514
O 2.966558 9.022064 10.967715
O 5.710492 5.932962 5.881064
O 0.357807 5.136622 8.791896
O 2.528938 4.009961 9.015227
O 3.127131 8.906291 6.297546
O 5.808363 3.484522 8.283261
O 6.408753 8.419373 5.543889
O 8.634727 7.342667 12.625140
O 3.339207 6.531065 8.775498
O 5.991808 10.698010 6.316906
O 5.630563 8.775930 7.778585
O 6.777732 6.595692 9.163268
O 8.661430 6.997490 8.069230
O 4.282614 9.062624 9.614417
O 8.863120 5.324265 9.735216
O 6.231649 7.062589 10.995381
O 8.054931 9.702076 9.715680
