34

Ti 1.239341 1.705079 2.003675
Ti 3.195716 4.396648 5.166596
Ti 5.696371 7.837036 9.209470
Fe 7.619213 10.482470 12.318177
P 0.284697 5.816704 5.442246
P 4.181670 2.434469 7.597155
P 6.655106 7.049688 4.940971
P 2.182266 5.198971 9.425971
P 4.761681 9.830926 6.763695
P 8.613072 6.373364 8.961767
O 1.243227 2.768442 4.929194
O 2.485619 5.083054 3.597142
O 0.534553 7.274873 4.765339
O 4.438836 3.385556 4.678566
O 1.867157 5.339008 5.564571
O 0.121487 5.859446 6.616631
O 2.600570 1.818437 8.087759
O 3.859501 3.613207 6.664266
O 5.120086 5.970676 5.307374
O 1.927056 3.764348 9.062213
O 0.647326 5.738652 8.943383
O 3.234148 9.261724 5.838514
O 5.702107 3.092490 8.466834
O 8.213585 6.520179 5.494649
O 6.805760 8.423459 5.334736
O 3.727397 6.234810 9.044087
O 5.026930 8.617974 7.673327
O 6.340238 10.508986 6.312370
O 8.884946 6.298544 7.808047
O 7.025472 6.856975 8.794193
O 4.442331 8.846288 9.688781
O 8.437618 4.974241 9.682535
O 6.401053 7.138492 10.776534
O 7.653421 9.463021 9.438945
