14

Li 0.446535 4.065576 4.496067
Li 0.666986 4.457190 7.226768
Li 2.322814 1.429202 4.371495
Li 2.893840 4.156717 3.578323
Li 4.549668 1.128730 0.723050
Li 4.770119 1.520343 3.453751
Co 1.823320 1.187886 2.068366
Co 3.393334 4.398034 5.881452
O 1.227578 0.546176 0.642974
O 1.306182 2.689550 3.213217
O 1.511145 4.858960 5.823332
O 3.705504 0.726960 2.126486
O 3.910472 2.896369 4.736601
O 3.989076 5.039743 7.306844
