28

Li 2.014669 2.379028 8.547875
Li 5.858764 2.135076 9.533861
Li 5.871053 2.147650 4.773826
Li 4.000428 -0.291041 3.846775
Ti 1.940786 2.442094 4.716855
Ti 3.916203 -0.280432 9.538587
Mn 3.886672 2.281996 2.092741
Mn 4.925549 0.901495 6.858969
Mn 4.899474 -1.601765 6.924574
Fe 0.992767 3.736408 2.017678
Fe 0.990253 1.235421 2.047673
Fe 2.008344 -0.128206 6.854145
O 1.004908 3.783227 5.598590
O 0.262272 2.546270 3.277947
O 2.032200 2.400703 1.008161
O 5.853983 2.135149 2.983857
O 5.842031 2.140471 7.735375
O 0.969650 1.233873 5.690087
O 2.912259 3.461315 3.221248
O 2.914211 1.247449 3.265142
O 1.976393 -0.167879 0.886620
O 3.901157 2.379320 5.682298
O 3.105104 0.875748 8.102168
O 3.117346 -1.392494 8.045553
O 4.022438 -0.299582 5.868680
O 4.883753 0.922723 0.985085
O 5.700053 -0.541083 8.151004
O 4.865452 -1.662272 1.040313
