28

Li 0.130251 0.013436 7.312674
Li 2.039149 1.752950 2.101368
Li 0.130251 3.633935 3.944626
La 5.067294 -0.169990 3.933473
La 4.939851 -0.166293 7.593701
La 1.929285 1.753902 5.727250
La 4.973426 3.455413 7.915560
La 4.939851 3.465796 4.238195
La 1.929285 5.423447 2.412274
La 1.965446 5.419155 6.046844
Fe 0.030788 0.016602 3.628567
Fe 0.038242 3.637353 0.331889
O 2.427371 -0.183239 3.874774
O 6.898613 5.220884 4.571321
O 6.890361 5.234837 8.110881
O 2.467825 -0.227223 7.282710
O 4.424458 1.675691 5.893399
O 6.907822 -0.197969 9.510233
O 6.898613 -0.296870 5.886387
O 4.473725 1.672408 2.239966
O 2.410049 3.664799 7.656192
O 6.897337 1.581272 7.911319
O 6.907822 1.592397 4.161836
O 2.467825 3.706184 4.253255
O 4.424458 5.317082 2.547958
O 6.890361 3.464120 6.194824
O 4.549085 5.319830 6.206540
O 6.897337 3.350102 2.539618
