22

Li 0.231487 3.586569 3.549742
Li 0.231574 6.478810 3.549934
Li 1.677626 1.677626 3.373732
Li 1.677559 1.677558 1.007159
Li 3.123785 3.586590 3.549737
Li 3.123732 6.478743 3.549711
Li 3.586578 0.231497 1.183196
Li 3.586591 3.123631 1.183213
Li 5.032657 5.032608 1.359440
Li 5.032710 5.032689 3.725981
Li 6.478709 0.231444 1.183343
Li 6.478749 3.123638 1.183217
Mn 1.677619 5.032649 1.183340
Mn 5.032677 1.677544 3.549965
O 0.111268 1.677495 4.604406
O 1.677478 0.111310 2.237809
O 1.677653 3.243860 2.237768
O 3.243843 1.677595 4.604317
O 3.466359 5.032666 0.128690
O 5.032603 6.598977 2.495260
O 5.032677 3.466293 2.495277
O 6.598968 5.032511 0.128766
