14

Li 0.009292 0.012692 4.905251
Zn 3.757702 5.133116 3.539373
Fe 1.483680 2.026744 2.432457
Fe 3.757307 2.479822 5.173526
Fe 0.694170 3.601008 4.526209
Fe 3.757307 5.132576 6.057778
O 5.106224 4.508469 5.137853
O 2.257852 3.084283 3.713667
O 2.257852 5.551045 4.535922
O 2.270136 3.101064 6.034271
O 5.220045 4.714746 7.495301
O 5.182400 7.079290 6.070752
O 2.430325 5.735854 6.905764
O 5.220045 7.130714 8.300624
