43

Li 1.219687 3.785355 4.176462
Li 1.949784 5.686226 6.242798
Li 3.842544 3.009851 9.375179
Li 2.950812 1.077915 7.201641
Li 5.339768 -1.578818 3.982180
Li 5.721582 0.337534 6.140565
Li 7.094960 4.243800 10.491680
Ni 2.281646 6.594309 4.089002
Ni 0.320346 0.928320 4.191108
Ni 0.933669 2.870252 6.311068
Ni 1.579862 4.683574 8.398399
Ni 2.912561 0.204654 3.090886
Ni 3.491426 2.108954 5.149186
Ni 4.146516 3.949580 7.265662
Ni 4.780672 5.812639 9.282692
Ni 6.026304 1.334570 3.997644
Ni 6.662039 3.175877 6.106172
Ni 7.371309 5.057607 8.153328
Ni 5.461124 -0.559829 8.292231
O 0.644884 5.710394 4.680327
O 1.103557 7.586200 6.628934
O 0.168640 4.514242 6.978623
O 3.001942 4.930310 3.441572
O 0.759726 6.268186 8.990080
O 1.670791 -0.024407 1.650651
O 3.708094 6.907839 5.628514
O 2.125787 1.845530 3.707602
O 2.690998 3.845900 5.887402
O 1.759046 1.279049 5.700432
O 3.508122 5.605664 7.829516
O 2.480529 3.097200 7.838118
O 5.212681 2.920100 4.535464
O 4.351353 0.362476 4.469611
O 5.949980 4.799745 6.772293
O 4.827658 2.300459 6.602541
O 5.430467 4.163209 8.713476
O 4.077034 -0.825990 6.869709
O 6.224337 5.982006 10.632519
O 6.789915 -0.274606 3.341568
O 4.594417 1.164682 8.989210
O 7.267010 1.501765 5.472077
O 6.438330 -1.615883 5.646606
O 7.170801 0.270694 7.638408
