16

Li 4.456002 1.237296 1.845500
V 2.229642 3.688587 3.684114
V 3.743495 4.614027 0.369074
V 0.138413 0.263166 0.056931
O 3.805736 4.636258 -1.426117
F 0.928018 5.219116 3.988893
F 0.191259 6.725654 0.308503
F 0.704231 2.748256 3.234950
F 1.871063 0.736842 -0.023729
F 2.471720 4.466729 2.053708
F 2.122361 3.553492 -0.213816
F 3.306393 2.193423 3.343585
F 3.199704 -0.494117 2.203322
F 4.504549 2.991345 0.909137
F 4.957043 -1.420846 3.880406
F 4.953855 0.313821 0.129502
