34

Sn 0.000000 3.464005 1.311847
Sn 0.000000 0.000000 4.468494
P 7.347407 -0.238464 10.653492
P 2.012867 4.380890 7.117529
P 5.158815 3.418792 4.760474
P 3.573740 0.944151 4.288316
P 3.784601 3.504371 10.905039
P 2.199526 1.029731 10.432882
P 5.345474 0.067632 8.075826
P 0.010934 4.686987 4.539864
O 0.327527 4.475265 3.259608
O 0.984333 1.934455 1.956818
O 1.439284 4.144373 5.504569
O 0.767821 5.267566 7.553071
O 1.548430 2.995850 7.205051
O 0.218616 0.852796 6.404232
O 3.703291 4.623091 7.700750
O 3.095301 0.467014 2.739925
O 2.312131 0.584559 4.765079
O 3.741444 2.451667 4.680643
O 2.200078 4.073436 10.369567
O 5.561000 4.441689 5.956477
O 1.797341 0.006834 9.236879
O 5.158263 0.375087 4.823789
O 3.616897 1.996855 10.512713
O 5.046211 3.863964 10.428277
O 4.263040 3.981509 12.453431
O 3.655050 -0.174568 7.492606
O 7.139725 3.595726 8.789123
O 5.809911 1.452672 7.988305
O 6.590520 -0.819044 7.640285
O 5.919057 0.304149 9.688787
O 6.374008 2.514068 13.236538
O 7.030814 -0.026742 11.933747
