96

Li 0.146132 5.604868 7.537372
Li 2.665157 8.714758 0.000000
Li 2.855921 8.560441 5.024914
Li 5.667210 1.138651 7.537372
Li 5.374946 11.670331 2.512457
Li 8.186234 4.248541 5.024914
Li 8.376999 4.094224 0.000000
Li 10.896024 7.204114 2.512457
Cr 1.776462 7.496063 2.512457
Cr 3.744616 9.779136 7.537372
Cr 7.297540 3.029846 2.512457
Cr 9.265694 5.312919 7.537372
Si 0.229290 2.655556 4.923160
Si 0.830723 3.348266 9.593979
Si 0.483304 8.963227 8.057269
Si 2.656555 0.692046 4.923160
Si 2.268125 5.015662 4.569064
Si 3.252953 1.388829 9.593979
Si 2.864523 5.712445 9.948074
Si 2.023740 10.750144 1.992559
Si 3.497338 6.525056 7.017474
Si 4.690354 3.056225 4.569064
Si 5.291787 3.748935 9.948074
Si 5.037774 8.311973 3.032355
Si 6.004382 4.497009 7.017474
Si 5.750368 9.060047 0.101755
Si 6.351801 9.752757 5.480765
Si 7.544818 6.283926 3.032355
Si 9.018415 2.058838 8.057269
Si 8.177633 7.096537 0.101755
Si 7.789203 11.420153 0.455850
Si 8.774030 7.793320 5.480765
Si 8.385601 12.116936 5.126669
Si 10.558851 3.845755 1.992559
Si 10.211432 9.460716 0.455850
Si 10.812865 10.153426 5.126669
O 0.641108 0.743689 1.995454
O 0.002142 3.832975 8.287742
O 1.139142 1.321413 5.059134
O 0.170623 7.910388 9.262073
O 0.339977 8.088870 6.679548
O 1.170126 3.954183 5.173240
O 1.829034 2.121693 9.229491
O 1.713168 4.584115 0.148325
O 1.057353 8.266158 4.131454
O 1.628033 5.719021 3.262828
O 1.737295 9.214913 1.691577
O 2.483646 6.039293 5.812670
O 1.991674 9.509994 8.358252
O 2.634747 6.232540 8.395195
O 3.893044 0.685470 8.287742
O 2.686921 6.947936 0.893460
O 3.807909 1.820376 5.173240
O 3.692044 4.282798 4.204577
O 4.350952 2.450308 0.148325
O 2.834157 10.327264 5.918374
O 2.886331 11.042660 3.370280
O 3.529404 7.765206 3.333337
O 3.037432 11.235907 0.787756
O 4.381936 5.083078 0.034220
O 3.783782 8.060286 6.716491
O 5.518936 2.571516 3.262828
O 4.879970 5.660802 7.020368
O 4.463725 9.009042 9.156369
O 5.691701 3.444170 5.812670
O 5.861055 3.622652 8.395195
O 5.181101 9.186330 1.654634
O 5.350454 9.364812 4.237159
O 6.578430 3.799940 0.893460
O 6.162185 7.148180 3.029461
O 5.523220 10.237466 6.787001
O 7.258373 4.748696 3.333337
O 6.660220 7.725904 10.015609
O 8.004724 1.573075 9.262073
O 7.512751 5.043776 6.716491
O 8.155824 1.766322 6.679548
O 8.207999 2.481718 4.131454
O 6.691204 10.358674 9.901503
O 7.350111 8.526184 5.845252
O 7.234246 10.988606 4.876589
O 8.355235 5.861046 9.156369
O 7.149111 12.123512 1.762087
O 8.407409 6.576442 1.654634
O 9.050482 3.298988 1.691577
O 8.558510 6.769689 4.237159
O 9.304860 3.594069 8.358252
O 9.414122 7.089961 6.787001
O 9.984803 4.542824 5.918374
O 9.328987 8.224867 9.901503
O 9.213122 10.687289 0.820337
O 9.872029 8.854799 4.876589
O 10.702179 4.720112 3.370280
O 10.871532 4.898594 0.787756
O 9.903014 11.487569 4.990695
O 11.040013 8.976007 1.762087
O 10.401048 12.065293 8.054375
