24

Mn 3.929077 2.362425 2.219924
Mn 4.946601 0.981410 6.842240
Mn 4.979475 -1.607273 6.655783
Fe 0.962126 3.844800 2.130357
Fe 0.972291 1.264795 2.034659
Fe 2.008516 -0.142724 6.652138
Te 2.004664 2.482393 4.704082
Te 3.978485 -0.238467 9.288668
O 1.048774 3.795895 5.771287
O 0.297373 2.595283 3.398895
O 2.068885 2.492958 1.192090
O 5.891145 2.252746 3.117024
O 5.901604 2.239420 7.724951
O 1.090604 1.280973 5.642803
O 2.938055 3.538057 3.458668
O 2.943488 1.324359 3.347106
O 2.074444 -0.106666 0.986741
O 3.880095 2.320155 5.808788
O 3.185918 0.981256 7.978899
O 3.131851 -1.296531 7.951868
O 4.080289 -0.223906 5.806857
O 4.898871 0.959827 1.181716
O 5.730889 -0.239214 8.068527
O 4.929385 -1.545583 1.066318
