70

Li 3.752314 5.668062 -2.263158
Li 3.548908 5.935648 1.079495
Li 5.824232 2.942523 24.294550
Li 1.476991 3.359121 3.708799
Li 1.128775 3.817194 6.758282
Li 4.959457 4.080099 9.480459
Li 4.686929 4.438608 12.750922
Li 0.331470 4.866026 16.399115
Li 2.614293 1.863036 15.252426
Li 2.341765 2.221545 18.522890
Ti 1.828682 2.896491 -1.165112
Ti 5.472541 3.405152 4.827401
Ti 1.907932 2.792235 11.103673
Ti 5.393290 3.509409 16.899676
Mn 0.730122 4.341610 -0.591831
Mn 3.650611 3.150822 1.831145
Mn 0.730122 1.690577 1.831145
Mn 4.224785 5.046550 5.222114
Mn 3.034808 6.611926 5.693922
Mn 1.303613 0.951230 7.634988
Mn 1.924988 5.438953 8.690949
Mn 4.207507 2.403177 7.634988
Mn 4.825518 6.889219 8.690949
Mn 0.730122 4.341610 11.578699
Mn 5.376235 6.164756 14.466448
Mn 2.475704 4.714491 14.466448
Mn 3.076437 6.557159 17.935284
Mn 4.266414 4.991784 17.463475
Mn 3.093715 3.898467 20.368361
Mn 0.156632 2.429925 20.368361
O 1.470326 5.735090 -0.281178
O 4.703506 7.351680 -0.281178
O 2.597716 4.252029 -0.902484
O 5.830896 5.868619 -0.902484
O 0.330319 4.867540 2.478258
O 1.646694 3.135880 1.950169
O 2.625683 1.848053 1.297902
O 3.269055 6.303776 2.587770
O 4.675539 4.453591 2.364387
O 5.654528 3.165764 1.712121
O 4.864343 6.600311 5.179362
O 2.225816 5.281047 5.179362
O 3.577727 3.504692 5.247931
O 0.373028 1.902342 5.247931
O 5.174166 3.797666 7.846443
O 3.843153 5.548571 8.299625
O 1.029589 3.947675 8.634040
O 2.255488 2.335029 7.871267
O 2.601595 4.220459 11.348693
O 0.022961 2.931142 11.348693
O 1.178563 1.386039 10.858177
O 3.784673 2.689094 10.858177
O 1.437284 5.752078 11.808705
O 4.699627 7.383250 11.808705
O 1.453434 3.390119 13.990506
O 0.430655 4.735545 14.523358
O 2.780346 1.644598 13.536469
O 3.458069 6.055138 14.857773
O 0.006811 5.293101 9.166891
O 4.520876 4.657046 14.466879
O 0.281681 1.995116 17.145171
O 3.516549 3.612550 17.145171
O 5.075407 6.322662 17.978035
O 2.436879 5.003399 17.978035
O 5.045734 3.966614 20.132082
O 4.032167 5.299934 20.569627
O 2.127056 2.503977 20.156906
O 1.129925 3.815680 20.679139
O 1.087216 1.478813 22.755417
O 3.723495 2.796952 22.755417
