12

Ti 3.633528 4.963491 3.469457
Mn 3.633528 2.446109 5.045469
Mn 0.726706 3.510080 4.431185
Mn 3.633528 4.963491 5.884596
O 4.838975 4.364095 4.976518
O 2.245439 3.067327 3.679750
O 2.245439 5.313395 4.428440
O 2.272914 3.104858 5.787785
O 4.994142 6.822124 5.981406
O 5.021617 4.613588 7.340752
O 2.428080 5.562888 6.792673
O 5.021617 6.859656 8.089441
