40

V 2.654710 7.440300 4.659366
V 2.654710 3.721981 4.659366
V 2.735082 0.001220 0.821452
V 2.735082 3.719540 0.821452
V 8.044501 7.440300 6.854377
V 8.044501 3.721981 6.854377
V 8.124874 3.719540 3.016463
V 8.124874 0.001220 3.016463
F 0.952538 0.449200 4.815784
F 0.952538 3.271560 4.815784
F 1.041211 0.485329 0.720254
F 1.041211 3.235432 0.720254
F 2.104649 5.581141 4.302578
F 2.208068 5.581141 1.185447
F 2.659323 3.321701 2.750579
F 2.659323 0.399059 2.750579
F 2.730468 7.042462 6.588494
F 2.730468 4.119819 6.588494
F 3.181723 1.860380 5.023362
F 3.285143 1.860380 0.464664
F 4.348581 6.956192 4.558168
F 4.348581 4.206089 4.558168
F 4.437254 6.992321 0.977870
F 4.437254 4.169960 0.977870
F 6.342329 0.449200 6.697959
F 6.342329 3.271560 6.697959
F 6.431002 0.485329 3.117661
F 6.431002 3.235432 3.117661
F 7.494441 5.581141 7.211165
F 7.597860 5.581141 2.652467
F 8.049115 0.399059 1.087335
F 8.049115 3.321701 1.087335
F 8.120260 4.119819 4.925249
F 8.120260 7.042462 4.925249
F 8.571515 1.860380 6.490381
F 8.674934 1.860380 3.373250
F 9.738373 4.206089 6.955575
F 9.738373 6.956192 6.955575
F 9.827045 4.169960 2.860044
F 9.827045 6.992321 2.860044
