24

Ti 1.064043 3.772632 2.074512
Ti 1.059879 1.246408 2.072833
Ti 2.088333 -0.169301 6.823701
Nb 2.066774 2.437560 4.722025
Nb 4.079250 -0.326327 9.448795
V 4.013986 2.281948 2.004470
V 5.034931 0.872047 6.775932
V 5.077732 -1.655920 6.728441
O 1.052964 3.758168 5.649023
O 0.252240 2.562529 3.149735
O 1.926629 2.444896 1.009727
O 0.034517 -0.008295 2.853336
O 0.003843 5.100489 7.556489
O 1.059091 1.247948 5.668648
O 2.833357 3.512465 3.194153
O 2.822557 1.249113 3.200112
O 2.079963 -0.153858 0.949367
O 4.009962 2.299878 5.668604
O 3.157515 0.887574 7.887925
O 3.120102 -1.333496 7.891620
O 4.018781 -0.207717 5.743863
O 5.025609 0.869631 0.984143
O 5.751972 -0.403932 7.929808
O 5.035319 -1.637412 0.973856
