36

Fe 0.000000 0.000000 0.000000
Fe 0.000000 0.000000 0.000000
Fe 0.000000 0.000000 0.000000
Fe 0.000000 0.000000 0.000000
Fe 0.000000 0.000000 0.000000
Ni 0.000000 0.000000 0.000000
P 0.000000 0.000000 0.000000
P 0.000000 0.000000 0.000000
P 0.000000 0.000000 0.000000
P 0.000000 0.000000 0.000000
P 0.000000 0.000000 0.000000
P 0.000000 0.000000 0.000000
O 0.000000 0.000000 0.000000
O 0.000000 0.000000 0.000000
O 0.000000 0.000000 0.000000
O 0.000000 0.000000 0.000000
O 0.000000 0.000000 0.000000
O 0.000000 0.000000 0.000000
O 0.000000 0.000000 0.000000
O 0.000000 0.000000 0.000000
O 0.000000 0.000000 0.000000
O 0.000000 0.000000 0.000000
O 0.000000 0.000000 0.000000
O 0.000000 0.000000 0.000000
O 0.000000 0.000000 0.000000
O 0.000000 0.000000 0.000000
O 0.000000 0.000000 0.000000
O 0.000000 0.000000 0.000000
O 0.000000 0.000000 0.000000
O 0.000000 0.000000 0.000000
O 0.000000 0.000000 0.000000
O 0.000000 0.000000 0.000000
O 0.000000 0.000000 0.000000
O 0.000000 0.000000 0.000000
O 0.000000 0.000000 0.000000
O 0.000000 0.000000 0.000000
