72

Mn 2.149129 4.474043 7.013259
Mn 2.794330 1.491348 14.313612
Mn 7.095821 4.474043 5.145099
Mn 7.734556 1.491348 12.445452
Fe 2.240366 4.474043 11.998407
Fe 2.703093 1.491348 4.698055
Fe 7.170932 4.474043 9.882035
Fe 7.659445 1.491348 2.581682
Co 2.168379 4.474043 2.209525
Co 2.775080 1.491348 9.509878
Co 7.216827 4.474043 0.151628
Co 7.613550 1.491348 7.451981
P 0.974267 1.491348 2.020723
P 0.937675 1.491348 6.943161
P 0.986576 1.491348 11.758503
P 3.956883 4.474043 4.458165
P 3.969192 4.474043 9.321076
P 4.005784 4.474043 14.243514
P 5.929185 1.491348 0.392949
P 5.900671 1.491348 5.277016
P 5.924330 1.491348 10.150586
P 8.906047 4.474043 2.850233
P 8.901192 4.474043 7.693302
P 8.929706 4.474043 12.577369
O 0.512083 4.474043 3.181289
O 0.527279 4.474043 7.998529
O 0.529257 4.474043 12.921814
O 1.172598 1.491348 3.537240
O 1.133515 1.491348 8.445180
O 1.176573 1.491348 13.295242
O 1.706670 0.262113 1.345221
O 1.682140 0.311775 6.190947
O 1.696625 0.283428 11.062663
O 1.706670 2.720582 1.345221
O 1.682140 2.670920 6.190947
O 1.696625 2.699268 11.062663
O 3.246834 3.266123 3.762310
O 3.236789 3.244808 8.645574
O 3.261319 3.294470 13.491300
O 3.246834 5.681963 3.762310
O 3.236789 5.703277 8.645574
O 3.261319 5.653615 13.491300
O 3.809944 4.474043 1.144827
O 3.766886 4.474043 5.994889
O 3.770861 4.474043 10.837593
O 4.416180 1.491348 0.698177
O 4.414202 1.491348 5.621462
O 4.431376 1.491348 10.481642
O 5.464994 4.474043 4.153769
O 5.450104 4.474043 8.962512
O 5.508743 4.474043 13.892309
O 6.117600 1.491348 3.772384
O 6.144324 1.491348 8.606590
O 6.111628 1.491348 13.458186
O 6.629584 0.295776 1.114253
O 6.643969 0.298973 6.002117
O 6.643603 0.270011 10.806800
O 6.629584 2.686919 1.114253
O 6.643969 2.683722 6.002117
O 6.643603 2.712678 10.806800
O 8.186773 3.252713 3.506447
O 8.200793 3.278471 8.414606
O 8.186408 3.281669 13.302469
O 8.186773 5.695373 3.506447
O 8.200793 5.669614 8.414606
O 8.186408 5.666417 13.302469
O 8.686053 4.474043 1.306238
O 8.718749 4.474043 6.157833
O 8.712777 4.474043 11.072737
O 9.380273 1.491348 1.662159
O 9.321633 1.491348 6.591956
O 9.365383 1.491348 11.454122
