132

Li 0.260223 16.397587 2.166510
Li 0.260223 12.985259 7.313053
Li 1.091305 0.428186 2.308143
Li 1.091305 9.366096 7.454686
Li 2.678732 0.428186 7.454686
Li 2.678732 9.366096 2.308143
Li 3.509814 16.397587 7.313053
Li 3.509814 12.985259 2.166510
Li 4.030260 6.603305 8.126578
Li 4.030260 3.190977 2.980034
Li 4.861343 19.160378 2.838401
Li 4.861343 10.222468 7.984945
Li 6.448770 10.222468 2.838401
Li 6.448770 19.160378 7.984945
Li 7.279852 6.603305 2.980034
Li 7.279852 3.190977 8.126578
Mn 1.885019 4.897141 1.577385
Mn 1.885019 4.897141 6.723929
Mn 5.655056 14.691423 3.569159
Mn 5.655056 14.691423 8.715703
H 0.477385 15.274026 4.518810
H 0.477385 14.108820 9.665353
H 0.735150 14.024981 3.592370
H 0.735150 15.357865 8.738914
H 0.696251 10.949420 0.604112
H 0.696251 18.433426 5.750655
H 3.073787 10.949420 5.750655
H 3.073787 18.433426 0.604112
H 3.034888 14.024981 8.738914
H 3.034888 15.357865 3.592370
H 3.292653 14.108820 4.518810
H 3.292653 15.274026 9.665353
H 4.247422 4.314538 0.627734
H 4.247422 5.479744 5.774278
H 4.505187 4.230699 6.700718
H 4.505187 5.563583 1.554174
H 4.466288 1.155138 9.688976
H 4.466288 8.639144 4.542432
H 6.843824 1.155138 4.542432
H 6.843824 8.639144 9.688976
H 6.804925 5.563583 6.700718
H 6.804925 4.230699 1.554174
H 7.062690 4.314538 5.774278
H 7.062690 5.479744 0.627734
S 1.074755 2.996247 4.197665
S 1.074755 6.798015 9.344209
S 1.659156 11.213904 4.087859
S 1.659156 18.168942 9.234402
S 2.110882 18.168942 4.087859
S 2.110882 11.213904 9.234402
S 2.695283 2.996247 9.344209
S 2.695283 6.798015 4.197665
S 4.844792 12.790549 6.095422
S 4.844792 16.592297 0.948879
S 5.429193 1.419622 6.205229
S 5.429193 8.374660 1.058685
S 5.880919 1.419622 1.058685
S 5.880919 8.374660 6.205229
S 6.465320 12.790549 0.948879
S 6.465320 16.592297 6.095422
O 0.103668 13.690624 0.993499
O 0.103668 15.692222 6.140043
O 0.356171 14.940002 3.580533
O 0.356171 14.442844 8.727077
O 0.922596 11.413042 8.364606
O 0.922596 17.969804 3.218062
O 0.650558 1.595802 3.904652
O 0.650558 8.198480 9.051196
O 0.784349 10.190089 3.506937
O 0.784349 19.192758 8.653481
O 0.986031 12.466084 4.437309
O 0.986031 16.916762 9.583853
O 1.604241 10.564034 0.291377
O 1.604241 18.818812 5.437921
O 2.081845 6.410867 8.294633
O 2.081845 3.383415 3.148089
O 1.739088 6.722188 0.378971
O 1.739088 3.072094 5.525515
O 2.030949 3.072094 0.378971
O 2.030949 6.722188 5.525515
O 1.688193 3.383415 8.294633
O 1.688193 6.410867 3.148089
O 2.165796 10.564034 5.437921
O 2.165796 18.818812 0.291377
O 2.784007 16.916762 4.437309
O 2.784007 12.466084 9.583853
O 2.985689 10.190089 8.653481
O 2.985689 19.192758 3.506937
O 3.119480 1.595802 9.051196
O 3.119480 8.198480 3.904652
O 2.847441 11.413042 3.218062
O 2.847441 17.969804 8.364606
O 3.413867 14.442844 3.580533
O 3.413867 14.940002 8.727077
O 3.666369 15.692222 0.993499
O 3.666369 13.690624 6.140043
O 3.873706 3.896342 9.299589
O 3.873706 5.897940 4.153045
O 4.126208 5.145720 6.712555
O 4.126208 4.648562 1.566011
O 4.692633 1.618760 1.928482
O 4.692633 8.175542 7.075026
O 4.420595 11.390084 6.388436
O 4.420595 17.992762 1.241892
O 4.554386 0.395807 6.786150
O 4.554386 9.398476 1.639607
O 4.756068 2.671802 5.855779
O 4.756068 7.122480 0.709235
O 5.374279 0.769752 10.001711
O 5.374279 9.024530 4.855167
O 5.851882 16.205149 1.998454
O 5.851882 13.177697 7.144998
O 5.509125 12.866376 4.767573
O 5.509125 16.516470 9.914117
O 5.800987 16.516470 4.767573
O 5.800987 12.866376 9.914117
O 5.458230 13.177697 1.998454
O 5.458230 16.205149 7.144998
O 5.935833 0.769752 4.855167
O 5.935833 9.024530 10.001711
O 6.554044 2.671802 0.709235
O 6.554044 7.122480 5.855779
O 6.755726 9.398476 6.786150
O 6.755726 0.395807 1.639607
O 6.889517 11.390084 1.241892
O 6.889517 17.992762 6.388436
O 6.617479 1.618760 7.075026
O 6.617479 8.175542 1.928482
O 7.183904 4.648562 6.712555
O 7.183904 5.145720 1.566011
O 7.436406 3.896342 4.153045
O 7.436406 5.897940 9.299589
