40

Li 0.000000 3.540507 1.626423
Li 0.000000 3.540507 5.056226
Li 0.781538 5.268105 3.341325
Li 1.243151 6.924829 1.704857
Li 1.243151 6.924829 4.977792
Li 1.629108 1.714285 3.341325
Li 2.367546 5.254793 0.000000
Li 2.753503 3.384321 1.636467
Li 2.753503 3.384321 5.046182
Li 3.215117 1.727598 0.000000
Li 3.996655 0.000000 4.967748
Li 3.996655 0.000000 1.714902
Li 4.778192 5.353417 0.000000
Li 5.239806 3.696693 1.636467
Li 5.239806 3.696693 5.046182
Li 5.625763 1.826222 0.000000
Li 6.364201 5.366729 3.341325
Li 6.750158 0.156186 1.704857
Li 6.750158 0.156186 4.977792
Li 7.211771 1.812910 3.341325
Co 0.821752 1.645231 0.000000
Co 3.174902 5.185739 3.341325
Co 4.818407 1.895276 3.341325
Co 7.171557 5.435783 0.000000
O 0.192007 1.540730 1.734629
O 0.192007 1.540730 4.948021
O 1.728026 3.317555 0.000000
O 1.893679 3.705070 3.341325
O 2.102976 0.164563 0.000000
O 2.268629 6.858062 3.341325
O 3.804647 5.081237 1.606696
O 3.804647 5.081237 5.075953
O 4.188662 1.999778 1.606696
O 4.188662 1.999778 5.075953
O 5.724680 0.222953 3.341325
O 5.890333 6.916452 0.000000
O 6.099630 3.375945 3.341325
O 6.265284 3.763460 0.000000
O 7.801302 5.540285 1.734629
O 7.801302 5.540285 4.948021
