22

Na 2.170390 0.364011 1.328636
Na 7.265062 6.014246 3.821676
Mn 3.306314 4.722964 3.981727
Mn 6.129137 1.655293 1.168584
P 4.131680 1.589509 3.744989
P 5.303771 4.788748 1.405323
C 0.938620 4.665215 3.553194
C 8.496832 1.713042 1.597118
O 0.262900 1.501727 1.696992
O 1.470893 4.775660 4.751653
O 1.909311 4.542328 2.632629
O 3.391469 2.843044 4.279614
O 3.067399 0.465049 3.920300
O 4.033203 5.101019 0.605505
O 4.482283 1.673342 2.232834
O 4.953169 4.704915 2.917477
O 5.402249 1.277238 4.544807
O 6.368052 5.913208 1.230011
O 6.043982 3.535213 0.870697
O 7.526141 1.835930 2.517682
O 7.964559 1.602597 0.398658
O 9.172552 4.876531 3.453319
