19

Li 1.591791 2.881669 3.731512
Li 1.433110 0.357442 6.784629
Li 4.142945 0.401023 10.923601
V 5.074046 0.045353 8.148176
V 0.354463 0.049441 0.299010
V 2.726571 0.265394 4.422014
V 2.452321 2.343608 9.284212
O 1.274209 3.804511 9.485913
O 1.331122 1.494641 4.291058
O 1.901024 -0.024497 2.005661
O 0.648544 1.427315 8.440652
O 4.446919 0.873904 4.821571
O 3.188625 0.047129 6.085123
O 3.760585 0.984140 9.051758
F 0.820847 3.863963 5.291490
F 1.860264 2.373368 7.244936
F 3.156382 2.294888 11.355056
F 3.739353 -1.464019 3.711386
F 4.524253 -1.498216 8.141237
