18

V 2.258461 5.234183 0.549723
V 2.307925 7.780419 2.426554
V 2.494281 2.669757 4.505889
V 0.135816 5.149072 3.544224
V 4.406796 2.639763 1.683279
V 0.023693 0.020705 5.617052
O 3.809245 3.449232 3.281270
O 3.786976 0.900127 1.593097
O 3.242954 0.876247 4.400204
O 3.332680 3.490249 0.564765
O 1.476899 4.384156 4.652436
O 1.437153 6.977711 0.795277
O 0.899968 6.966074 3.611871
F 3.773207 6.014602 5.059037
F 3.301064 5.932635 2.250357
F 1.368545 1.896991 2.859232
F 0.946279 1.885386 0.121727
F 0.941284 4.332292 1.829427
