14

Li 2.907844 -0.063088 3.483707
Li 2.907844 2.813201 2.945456
Co 0.000000 2.876289 3.511680
Co 2.907844 -0.063088 1.458742
Cu 0.000000 0.000000 2.024965
Cu 0.000000 0.000000 0.000000
O 4.349029 4.468204 8.451151
O 1.514062 4.321386 4.846562
O 4.386563 1.286674 6.874041
O 4.590828 4.226895 6.528940
O 1.224859 1.399507 3.411903
O 1.429124 4.339728 3.066802
O 4.301625 1.305015 5.094281
O 1.466658 1.158198 1.489692
