14

Li 1.497947 2.046233 2.410963
Cr 3.730143 2.561922 5.147504
Cr 0.804654 3.632725 4.529275
Cr 3.730143 5.095470 5.992020
Fe 0.000294 0.000401 -0.000494
Fe 3.721495 5.083656 3.614114
O 5.038840 4.523067 5.091693
O 2.313612 3.160452 3.729079
O 2.313612 5.520570 4.515784
O 2.326620 3.178222 5.935951
O 5.199578 7.102756 6.058136
O 5.213180 4.666181 7.535384
O 2.378210 5.703852 6.936284
O 5.213180 7.121336 8.353769
