28

Li 5.279621 7.837809 5.093197
Li 4.846079 3.465188 5.111635
Li 1.904388 5.280053 1.691586
Li 1.470846 0.907433 1.710024
V 6.287931 3.298014 1.611823
V 3.837768 7.670635 2.290157
V 2.912698 1.074607 4.513064
V 0.462535 5.447227 5.191398
F 6.607856 5.282520 1.347220
F 6.450975 1.465842 1.648402
F 5.604467 3.418156 3.298733
F 5.403674 5.409273 5.260568
F 5.486259 7.777397 3.050204
F 4.722025 1.036652 4.944263
F 4.639440 3.404776 0.851776
F 4.521233 7.790777 0.603247
F 3.674724 5.838463 2.253578
F 3.517844 0.909899 2.554760
F 3.232623 7.835343 4.248461
F 3.075742 2.906778 4.549643
F 2.229234 0.954464 6.199974
F 2.111026 5.340466 5.951445
F 2.028441 7.708590 1.858958
F 1.264207 0.967845 3.753017
F 1.346792 3.335969 1.542653
F 1.146000 5.327085 3.504489
F 0.299491 7.279399 5.154820
F 0.142610 3.462722 5.456002
