46

Li 0.098463 7.264028 3.807046
Li 1.283978 6.587668 8.248358
Li 1.176642 3.554501 8.830910
Li 1.945350 7.645111 5.636261
Li 1.399677 0.697163 9.297669
Li 2.633169 2.986187 4.023274
Li 2.641657 8.668582 3.159319
Li 3.842029 4.922793 8.052496
Li 3.849911 8.057953 7.578337
Li 4.554007 3.246890 5.991319
Li 5.088416 4.386793 3.285680
Li 0.039384 1.533030 4.822892
V 0.609673 2.569324 1.877295
V 0.643539 5.502697 1.405839
V 0.655658 8.395219 0.963266
V 3.239792 1.090218 1.661847
V 3.212900 4.012997 1.148982
V 3.237967 6.943849 0.704038
V 1.846078 4.753602 6.095152
V 2.087625 1.794641 6.755554
V 4.412732 6.150754 5.372742
V 4.650665 0.365834 6.492990
O 0.203885 7.904150 7.113408
O 0.486553 1.884510 8.051381
O 0.304681 5.045696 7.506931
O 1.003358 0.323559 6.021094
O 0.825416 5.952125 5.064506
O 1.105181 3.158172 5.477174
O 1.575342 1.235318 3.027904
O 1.532188 4.051751 2.535128
O 1.586641 7.222580 2.067792
O 2.748023 3.415312 7.302746
O 2.241781 5.334807 0.034908
O 2.229232 8.260300 -0.433528
O 2.192311 2.367396 0.585255
O 2.878843 6.202951 6.819112
O 2.987661 0.531647 7.787234
O 3.506157 4.606058 4.802654
O 3.618118 1.479133 5.344881
O 3.749296 7.498166 4.328981
O 4.243207 8.573066 1.317499
O 4.215018 2.719684 2.302022
O 4.251037 5.632371 1.757522
O 4.872844 3.838579 -0.209312
O 4.865854 6.855948 -0.715433
O 4.952592 0.896608 0.345020
