13

Mn 0.000000 2.596337 1.698907
Mn 0.000000 0.000000 0.000000
Mn 2.997992 1.498996 1.498996
Mn 0.000000 2.596337 -0.865446
Mn 2.997992 4.095333 0.633550
O 2.764898 2.781553 5.061680
O 5.720211 4.386129 6.444681
O 2.972653 5.391799 4.277752
O 5.720211 6.765578 5.651531
O 0.275773 1.425088 0.744274
O 3.023331 2.798867 2.118053
O 0.275773 3.804538 -0.048876
O 3.231086 5.409113 1.334125
