58

Li 7.416374 0.924289 5.741056
Li 7.439806 0.898321 0.626582
Li 2.541069 1.248240 7.307397
Li 2.536167 2.521264 9.822938
Li 7.485791 2.325183 3.209840
Li 7.429303 3.784082 0.560975
Li 2.491929 4.036468 2.355210
Li 2.551252 4.042735 7.261821
Li 7.465594 3.755707 5.724211
Li 2.580814 5.543220 4.624274
Co 0.070954 5.594596 -0.082610
Co 0.008826 0.017931 4.842278
Co 0.063407 1.403432 2.414346
Co 5.004774 1.090042 8.875845
Co 4.991326 1.091753 4.030457
Co 9.934390 2.202390 8.056938
Co 4.981362 2.490161 1.582510
Co 0.071354 2.796742 4.810287
Co -0.005132 2.809323 9.675077
Co 4.967325 2.494008 6.423244
Co 9.910599 4.992395 3.122934
Co 9.904529 4.980493 8.008351
Co 4.989120 3.892470 8.833976
Co 5.021337 3.890422 3.988928
Co 4.963641 5.293221 1.534125
Co 5.002358 5.290588 6.383984
O 8.956274 0.890616 4.044851
O 6.005513 1.040025 2.382275
O 3.958060 1.112247 5.653027
O 1.037619 1.295843 4.057853
O 4.011023 1.159184 0.782878
O 1.029223 1.358845 8.898756
O 5.974683 1.028196 7.235202
O 8.992785 0.840063 8.921931
O 1.025549 2.785080 1.553197
O 6.055442 2.417247 4.820380
O 4.018411 2.571762 3.172211
O 0.997804 2.769362 6.509293
O 8.980046 2.246651 6.392653
O 3.923586 2.554955 8.064429
O 6.016186 2.434032 9.712312
O 8.959799 2.238507 1.546825
O 3.960226 3.935316 0.760733
O 1.013778 4.121271 8.810097
O 1.020806 4.194471 3.949521
O 5.968653 3.837913 7.197949
O 8.949156 3.658974 8.842232
O 6.013899 3.818863 2.325022
O 8.987843 3.608744 3.995227
O 3.969401 3.996933 5.601832
O 0.980093 5.514005 1.515386
O 8.945272 5.073590 1.436237
O 3.983129 5.325041 3.148984
O 1.022284 5.531092 6.409682
O 5.997556 5.227059 9.675590
O 6.031920 5.237857 4.810035
O 8.974036 5.056380 6.345545
O 3.966117 5.355077 7.978603
