32

Li 2.107991 4.515688 3.310851
Li 1.544981 1.279762 0.459553
Li 5.552896 2.172361 7.214676
Li 4.989886 -1.063565 4.363378
P 1.647687 4.247099 0.605269
P 1.878084 0.757224 3.183361
P 5.219793 2.694899 4.490869
P 5.450190 -0.794976 7.068960
W 1.736489 2.548536 5.906111
W 1.743118 -0.797103 6.073013
W 5.354759 4.249226 1.601217
W 5.361389 0.903587 1.768119
O 0.909884 5.253815 7.801607
O 0.614399 4.048111 1.838257
O 1.727105 4.250386 5.223458
O 1.948396 3.062532 7.938633
O 1.425289 1.871997 4.030543
O 3.074062 4.651861 1.226341
O 0.518571 0.393244 2.420288
O 1.887609 0.871329 6.718257
O 4.580303 3.776808 3.590124
O 3.008116 1.055853 2.062778
O 4.089761 2.396270 5.611451
O 2.517574 -0.324685 4.084106
O 5.210268 2.580794 0.955973
O 6.579306 3.058879 5.253942
O 4.023815 -1.199738 6.447889
O 5.672588 1.580125 3.643687
O 5.149481 0.389591 -0.264403
O 5.370772 -0.798263 2.450772
O 6.483478 -0.595988 5.835973
O 6.187993 -1.801692 -0.127377
