33

Li 0.034644 4.485407 8.036373
Li 0.041113 2.268888 2.115812
Li 2.215813 1.950558 3.721408
Li 2.257610 -0.256197 5.441978
Li 4.438772 3.925756 3.571755
Li 4.432303 6.142275 1.826661
Ti 0.095250 4.500356 4.204438
Ti 0.060519 2.238060 5.936592
Ti 4.412904 6.173109 5.671529
Ti 4.378166 3.910807 7.403683
Ti 0.107597 0.003815 0.006156
Ti 4.365826 1.690546 1.491574
V 2.236708 4.205585 5.804066
V 2.282404 1.998866 -0.120572
V 2.191019 6.412297 4.063043
O 2.356444 4.195677 7.651217
O 4.553877 5.977032 7.475083
O 2.115932 -0.176262 -0.270092
O 2.116972 4.215486 3.956912
O 2.043013 1.993363 5.651394
O 4.496331 4.100767 5.601248
O 2.357490 1.870623 1.767822
O 2.430403 6.417807 5.956730
O 4.602002 3.784371 1.540816
O 4.573357 1.559727 3.234877
O 6.667079 5.798651 1.407942
O 6.687216 3.493539 3.198281
O 0.065538 2.121093 7.723671
O 4.516475 1.795661 -0.274054
O 4.407878 -0.426732 1.439709
O 6.581551 3.809934 -0.406938
O 6.629676 1.617273 1.324443
O 6.610197 -0.682217 3.119911
