28

Li 1.878806 2.315224 8.447892
Li 0.000192 0.000280 9.436270
Li 5.637112 -2.820238 4.706992
Li 3.758498 -0.252710 3.718771
Co 0.949880 3.585361 2.028569
Co 0.949936 1.170165 2.027163
Co 3.738091 2.190295 2.027626
Co 1.899213 -0.127660 6.753671
Co 4.687424 0.892530 6.754380
Co 4.687367 -1.522658 6.752974
Ni 1.879009 2.315337 4.638270
Ni 3.758295 -0.252570 9.364159
O 0.891348 3.664952 5.766875
O 0.203490 2.427824 3.087208
O 1.879415 2.315364 1.026258
O 0.000051 4.883022 2.959541
O 5.637253 2.062485 7.685272
O 0.891308 1.098589 5.765373
O 2.717282 3.347614 3.087807
O 2.717220 1.170130 3.086474
O 1.783124 -0.119731 1.037159
O 3.854185 2.182613 5.766113
O 2.920022 0.892414 7.813766
O 2.920084 -1.285082 7.812434
O 3.757889 -0.252489 5.752147
O 4.745956 0.964252 1.037671
O 5.433814 -0.365360 7.812957
O 4.745995 -1.602117 1.036170
