80

Li 2.267040 8.664951 1.958771
Li 2.267040 4.494375 4.613292
Li 6.905911 0.107933 4.613292
Li 6.905911 4.278509 1.958771
Li 11.439990 4.494375 3.350271
Li 11.439990 8.664951 0.695750
Li 16.078861 0.107933 3.350271
Li 16.078861 4.278509 0.695750
V 2.282413 3.048516 1.980655
V 2.282413 1.337926 4.635176
V 6.890537 5.724368 4.635176
V 6.890537 7.434958 1.980655
V 11.455364 1.337926 3.328387
V 11.455364 3.048516 0.673866
V 16.063487 5.724368 3.328387
V 16.063487 7.434958 0.673866
Si 0.490331 5.819458 1.558432
Si 0.490331 7.339869 4.212953
Si 4.145073 5.793174 2.917037
Si 4.145073 7.366152 0.262516
Si 5.027877 1.406732 2.917037
Si 5.027877 2.979710 0.262516
Si 8.682619 1.433016 1.558432
Si 8.682619 2.953427 4.212953
Si 9.663281 5.819458 1.096089
Si 9.663281 7.339869 3.750610
Si 13.318023 5.793174 5.046526
Si 13.318023 7.366152 2.392005
Si 14.200828 1.406732 5.046526
Si 14.200828 2.979710 2.392005
Si 17.855569 1.433016 1.096089
Si 17.855569 2.953427 3.750610
O 0.972259 6.206289 3.096398
O 0.972259 6.953037 0.441877
O 1.167313 1.464738 1.095436
O 1.167313 2.921704 3.749957
O 1.184943 4.429034 1.105884
O 1.184943 8.730292 3.760405
O 3.376013 1.455386 2.880357
O 3.376013 2.931056 0.225836
O 3.489335 0.066876 0.210870
O 3.489335 4.319566 2.865391
O 3.595760 6.400600 4.357847
O 3.595760 6.758727 1.703326
O 5.577190 2.014158 4.357847
O 5.577190 2.372284 1.703326
O 5.683615 4.453318 0.210870
O 5.683615 8.706009 2.865391
O 5.796938 5.841829 2.880357
O 5.796938 7.317498 0.225836
O 7.988007 0.042592 1.105884
O 7.988007 4.343850 3.760405
O 8.005637 5.851180 1.095436
O 8.005637 7.308146 3.749957
O 8.200691 1.819847 3.096398
O 8.200691 2.566595 0.441877
O 10.145209 6.206289 4.867165
O 10.145209 6.953037 2.212644
O 10.340263 1.464738 1.559085
O 10.340263 2.921704 4.213606
O 10.357893 4.429034 1.548637
O 10.357893 8.730292 4.203158
O 12.548963 1.455386 5.083206
O 12.548963 2.931056 2.428685
O 12.662285 0.066876 2.443651
O 12.662285 4.319566 5.098172
O 12.768710 6.400600 3.605715
O 12.768710 6.758727 0.951194
O 14.750140 2.014158 3.605715
O 14.750140 2.372284 0.951194
O 14.856565 4.453318 2.443651
O 14.856565 8.706009 5.098172
O 14.969888 5.841829 5.083206
O 14.969888 7.317498 2.428685
O 17.160957 0.042592 1.548637
O 17.160957 4.343850 4.203158
O 17.178587 5.851180 1.559085
O 17.178587 7.308146 4.213606
O 17.373641 1.819847 4.867165
O 17.373641 2.566595 2.212644
