40

Li 0.006625 3.651951 9.416919
Li 0.036455 0.910281 14.440495
Li 0.040504 3.656317 0.092761
Li 0.054985 0.892302 7.856734
Li 2.487908 4.585087 1.476591
Li 2.499396 1.762501 12.802085
Li 2.493461 4.502623 11.066631
Li 2.517738 1.835399 6.500166
Li 2.521787 4.580722 8.055981
Li 2.536268 1.853378 15.819953
Li 0.018113 0.983178 4.838865
Li 0.012178 3.734415 3.103411
Fe 0.023240 3.677580 12.766092
Fe 2.504522 4.559459 4.825764
Fe 2.488806 1.815526 3.160908
Fe 0.007523 0.930154 11.101236
Si 0.054772 3.646888 6.405661
Si 2.519951 1.832681 9.508969
Si 2.536054 4.590150 14.368881
Si 0.038668 0.912999 1.545749
O 0.543922 1.740069 0.244593
O 0.492554 4.592061 11.171318
O 0.500698 1.847106 12.691862
O 0.521099 4.852725 1.613147
O 0.540542 2.093795 6.332567
O 0.551138 4.464415 7.715048
O 0.568675 1.712079 2.958584
O 0.583469 4.454464 5.001081
O 0.837314 1.755302 9.601797
O 0.853998 4.511250 14.265255
O 3.025204 1.005611 8.207813
O 2.973837 3.644977 3.230990
O 2.981981 0.898573 4.751534
O 3.002382 3.384314 9.576367
O 3.021825 0.651885 14.295787
O 3.032420 3.772624 15.678267
O 3.049958 1.033600 10.921804
O 3.064751 3.782574 12.964301
O 3.318596 0.990378 1.661468
O 3.335280 3.725788 6.324927
