34

K 3.138810 4.845784 4.259421
K 4.319029 4.403648 9.687361
Li 2.614059 6.235620 7.150222
Li 7.355916 3.081495 7.623310
Mn 0.044353 3.506557 1.259357
Mn 3.709661 1.368049 5.954949
P 1.831383 1.284262 2.910132
P 1.236249 2.536086 7.310400
P 1.213579 6.624885 9.677215
P 6.187088 2.707160 4.413072
P 5.984250 6.771949 6.719578
P 5.538855 7.944284 11.243648
H 7.261396 5.854849 8.299773
H 3.876869 8.214150 12.571038
O 0.109387 0.622992 2.704288
O 7.341409 6.669049 7.717779
O 1.808212 2.777475 2.608530
O 1.305011 0.976322 7.877090
O 2.018734 0.981959 4.316096
O 1.165763 3.449901 8.437132
O 2.633333 2.873008 6.748227
O 1.109018 5.521685 10.584446
O 2.744171 7.566964 4.633010
O 4.830304 2.785582 5.009035
O 2.426775 6.585809 8.870848
O 4.545797 1.631168 9.563978
O 6.419860 3.730175 3.449373
O 4.615443 6.619775 7.341383
O 5.992111 5.875551 5.577079
O 5.276730 8.261048 9.888066
O 6.251915 8.324259 6.277533
O 5.584490 6.491144 11.612225
O 7.289563 4.610363 9.120091
O 7.130555 8.808158 11.537070
