19

Li 0.004088 5.680980 4.613435
V 0.825447 1.579979 3.070353
V 2.338421 4.462594 2.470437
V 2.091207 3.047394 -0.146214
V 4.072806 1.611053 3.783939
V 3.705953 0.237855 1.182528
V 5.342728 3.008521 0.623951
O 0.473037 5.250412 2.695761
O 1.093125 3.049666 1.572761
O 2.526243 2.881462 3.734631
O 2.587109 0.631971 2.683571
O 3.611106 4.079912 0.893375
O 3.602470 1.747782 -0.100686
O 5.091819 1.532427 2.061388
F 0.577637 1.749320 5.093349
F 1.957604 5.007003 -0.807743
F 4.134807 -0.376251 4.388076
F 5.525105 2.957225 -1.437173
F 5.682665 -0.406437 0.584539
