22

Li 5.188158 5.112057 8.937408
Li 2.899370 6.745713 6.779397
Li 0.743632 0.439880 3.111023
Li 1.725144 3.088328 1.995457
Ni 3.412013 4.459178 5.545641
Ni 5.245441 8.055784 10.429655
C 2.018408 4.263519 7.391093
C 4.867240 2.884213 7.766751
C 3.573241 6.870644 4.046853
C 4.115832 4.237648 3.413685
O 1.227342 4.091407 8.291573
O 3.960114 2.078953 8.314299
O 3.330136 4.976520 7.527947
O 0.608083 0.863904 6.341595
O 1.506595 3.729098 6.283288
O 4.632744 3.038951 6.492603
O 3.114918 6.263223 5.064357
O 4.966096 7.455640 4.194409
O 5.167196 4.740570 4.355715
O 2.777987 3.889802 3.656997
O 2.659341 1.329747 2.680168
O 4.359255 4.053799 2.274164
