74

Co 0.641520 18.206633 1.513193
Co 4.178092 15.897366 4.123757
Co 0.960918 25.324933 3.872109
Co 4.620812 4.933455 2.769072
Co 4.178092 23.922170 4.123757
Co 1.084240 10.648992 0.158508
Co 1.084240 2.624187 0.158508
Co 4.301415 1.221424 0.410156
Co 4.301415 12.051754 0.410156
Co 0.641520 21.612903 1.513193
Co 4.620812 8.339724 2.769072
Co 0.960918 14.494603 3.872109
P 3.741334 12.653454 3.565759
P 1.300312 17.722269 4.496877
P 1.686472 10.342195 3.191471
P 1.520998 25.926633 0.716507
P 1.300312 22.097268 4.496877
P 1.520998 13.892903 0.716507
P 3.575860 16.204162 1.090795
P 3.741334 0.619725 3.565759
P 2.840344 19.909768 -0.407278
P 2.421989 6.636589 4.689544
P 3.962021 4.449090 -0.214612
P 1.686472 2.930983 3.191471
P 3.575860 23.615374 1.090795
P 3.962021 8.824089 -0.214612
O 2.775217 3.964990 2.800424
O 4.551165 0.543590 2.242384
O 0.619908 18.384414 3.412957
O 0.619908 21.435122 3.412957
O 2.664314 5.382539 -0.581579
O 3.178780 10.140868 0.148324
O 0.325696 22.221398 5.747192
O 1.760229 19.909768 0.754112
O 2.775217 9.308188 2.800424
O 4.623401 1.270402 -1.582910
O 0.325696 17.598138 5.747192
O 0.711167 26.002768 2.039882
O 4.551165 12.729589 2.242384
O 3.072860 25.820978 4.006202
O 2.189472 12.547799 0.276063
O 2.877296 14.798692 0.781684
O 0.711167 13.816768 2.039882
O 0.878841 6.636589 4.489312
O 4.516518 24.009428 2.157427
O 4.476693 16.551149 -0.160316
O 4.642424 8.161943 0.869308
O 3.502103 6.636589 3.528153
O 2.598019 21.163818 4.863845
O 0.785640 3.277971 4.442581
O 2.487115 17.238169 1.481841
O 2.877296 25.020844 0.781684
O 2.385036 11.747666 3.500581
O 4.623401 12.002776 -1.582910
O 3.072860 13.998558 4.006202
O 2.083552 23.414047 4.133941
O 2.598019 18.655718 4.863845
O 3.178780 3.132311 0.148324
O 4.936636 8.948220 -1.464927
O 4.936636 4.324959 -1.464927
O 0.745815 10.736250 2.124838
O 2.189472 0.725379 0.276063
O 2.083552 16.405490 4.133941
O 4.642424 5.111236 0.869308
O 0.638931 14.543581 5.865175
O 2.664314 7.890639 -0.581579
O 0.638931 25.275955 5.865175
O 4.383491 19.909768 -0.207047
O 2.487115 22.581367 1.481841
O 0.785640 9.995208 4.442581
O 2.385036 1.525513 3.500581
O 4.516518 15.810108 2.157427
O 4.476693 23.268387 -0.160316
O 0.745815 2.536929 2.124838
