28

Na 0.000000 3.785813 1.851132
Na 0.000000 3.785813 5.306541
Na 2.038815 5.580849 0.000000
Na 1.783758 1.795036 3.578837
Na 3.822573 0.000000 1.727705
Na 3.822573 0.000000 5.429968
Na 5.861389 5.776590 3.578837
Na 5.606331 1.990777 0.000000
Fe 1.131948 1.675942 0.000000
Fe 2.690625 5.461754 3.578837
Fe 4.954521 2.109871 3.578837
Fe 6.513198 5.895684 0.000000
O 0.175517 1.539455 1.350961
O 0.175517 1.539455 5.806712
O 1.481163 4.303493 3.578837
O 1.641168 3.263590 0.000000
O 2.181405 7.049403 3.578837
O 2.341410 0.517680 0.000000
O 3.647056 5.325268 2.227876
O 3.647056 5.325268 4.929797
O 3.998091 2.246358 2.227876
O 3.998091 2.246358 4.929797
O 5.303736 7.053946 0.000000
O 5.463742 0.522223 3.578837
O 6.003978 4.308035 0.000000
O 6.163983 3.268133 3.578837
O 7.469629 6.032170 1.350961
O 7.469629 6.032170 5.806712
