84

Li 1.736057 5.479386 2.416869
Li 2.446272 5.871947 7.697147
Li 4.503128 6.181810 5.922517
Li 7.349282 0.655199 2.988358
Li 5.213343 6.574371 11.202784
Li 8.652726 0.709427 0.326981
Li 9.375408 1.070060 5.518921
Li 11.472792 1.399599 3.801262
Li 12.195474 1.760232 8.993202
Li 13.498918 1.814460 6.331825
Mn 13.892462 -1.155578 8.646246
Mn 13.882052 -1.154490 3.605928
Mn 0.423816 2.609745 3.073149
Mn 0.402495 5.451561 5.183946
Mn 6.525584 1.021109 7.738841
Mn 6.955738 3.625237 0.673937
Mn 6.966148 3.624148 5.714255
Mn 6.546905 6.602196 8.435718
Mn 7.366308 6.263472 3.762702
Mn 13.481891 4.629090 8.365156
Se 1.998925 2.817897 6.120894
Se 1.818436 3.023923 10.324706
Se 5.130964 0.606931 0.487283
Se 4.950475 0.812957 4.691096
Se 2.260417 7.423728 10.378333
Se 2.216108 8.087011 5.190293
Se 4.733292 3.966747 8.429371
Se 4.688983 4.630029 3.241330
Se 9.213195 2.625408 8.227503
Se 9.147148 3.271715 3.046234
Se 11.701052 -0.802056 6.273949
Se 11.635005 -0.155749 1.092680
Se 8.964990 6.480747 6.734697
Se 8.798204 6.648383 10.991874
Se 12.049995 4.244180 1.135984
Se 11.883210 4.411815 5.393160
O 0.681847 1.687232 6.333645
O 1.416232 0.673583 3.531341
O 0.262785 3.609428 9.833518
O 1.612011 1.216853 10.219685
O 1.503697 3.616954 4.727149
O 1.855865 3.406877 1.797723
O 1.583838 4.067496 7.256860
O 0.848897 7.377190 4.178718
O 0.987982 6.849549 11.389547
O 1.340053 6.937087 8.929085
O 5.365562 -0.436642 3.555129
O 5.093535 0.223977 9.014267
O 5.445703 0.013900 6.084841
O 2.427884 6.582608 5.943252
O 5.337389 2.414001 0.592304
O 3.562540 5.914624 3.219757
O 6.686615 0.021426 0.978472
O 3.386860 6.139133 10.399907
O 5.533168 2.957271 7.280648
O 6.267553 1.943622 4.478345
O 4.521516 5.471150 7.676411
O 5.609347 5.116670 4.690578
O 5.961418 5.204208 2.230116
O 6.100503 4.676567 9.440946
O 7.794767 2.580037 2.025729
O 7.932643 2.064904 9.240702
O 8.277889 2.141767 6.782504
O 9.429821 1.818025 3.816698
O 7.628134 5.322271 6.987281
O 8.343213 4.309595 4.200209
O 10.518876 1.129509 1.062140
O 7.215131 7.226290 10.468388
O 10.329324 1.340150 8.258043
O 8.571682 4.854817 10.852670
O 11.418378 0.651634 5.503485
O 8.455502 7.272497 5.396503
O 8.793256 7.041851 2.448429
O 8.508206 7.641472 7.958403
O 12.570311 0.327892 2.537679
O 12.915557 0.404755 0.079481
O 13.053433 -0.110378 7.294454
O 12.339994 3.251090 4.169454
O 12.054943 3.850711 9.679428
O 12.392698 3.620066 6.731355
O 12.276518 6.037745 1.275187
O 13.633069 3.666272 1.659470
O 12.504987 6.582967 7.927648
O 13.220066 5.570291 5.140576
