34

Li 2.909449 5.284835 15.186892
Li 1.578764 5.273764 9.445938
V 0.087448 4.797440 17.907905
V 1.311901 2.612281 14.806044
V 1.294186 4.863445 6.462781
V 2.631191 2.482647 3.187887
V 2.645741 4.970715 12.205315
V 3.952835 2.634217 8.871107
V 5.134870 4.940336 6.503779
V 3.941160 4.926271 0.702088
O 1.275602 3.986998 16.067043
O 4.459608 3.534515 7.348592
F 1.106678 1.480365 16.164986
F 1.510342 1.045662 13.351169
F 1.245538 1.428497 7.107747
F 1.686092 0.995305 4.093681
F 1.658882 2.529158 9.567010
F 1.650951 3.489096 13.123690
F 0.917152 3.963118 8.186681
F 1.052053 4.872777 11.444693
F 0.906173 2.458761 2.640895
F 3.601978 2.526900 14.080808
F 1.432800 3.389984 5.133070
F 3.909153 4.011439 10.365333
F 1.715871 4.870356 1.384929
F 4.345177 2.532707 3.760554
F 4.202846 5.007586 12.992623
F 3.525784 4.953072 5.836399
F 3.572530 3.968960 2.321160
F 3.562398 6.434480 11.275296
F 3.786801 5.894682 8.484406
F 4.105877 3.487943 -0.687363
F 3.823147 6.407327 2.064270
F 4.215679 5.833014 -0.957278
