41

Li 1.306681 6.137137 8.192402
Li 2.870820 2.567029 7.523746
Li 6.332143 5.652274 9.705935
Li 4.245400 5.799324 7.249013
Li 2.062362 6.502746 3.956882
Li 6.318019 9.912492 6.512016
Li 7.798250 5.685182 5.596324
Mn 7.486052 10.226136 9.028334
Ni 3.072827 4.197559 9.184403
Ni 1.267116 1.730912 5.036689
Ni 5.629028 7.689395 4.965306
P 0.372778 3.745673 6.706970
P 4.109908 7.675982 9.262783
P 6.490605 3.568137 8.687067
P 2.096000 8.322546 5.302488
P 4.787589 4.208984 4.828497
P 8.399922 8.346135 7.411658
O 0.744591 2.485918 6.358270
O 1.933655 4.526620 7.485703
O 0.055503 4.882938 5.737837
O 4.196910 7.486405 10.542734
O 2.440601 8.021152 8.768684
O 4.110495 6.326004 8.811111
O 6.221469 9.783928 11.983428
O 4.931446 4.140317 8.356199
O 1.862213 8.380156 6.477528
O 0.479427 7.541152 4.513023
O 7.705540 7.487401 11.712609
O 3.302458 3.263953 5.252209
O 5.606287 8.726424 8.869260
O 1.055307 4.561582 2.377286
O 7.852947 4.571308 9.422852
O 6.839615 3.467875 7.527520
O 3.374531 7.485386 5.397597
O 2.432527 2.130186 2.025894
O 5.277870 5.561364 5.390703
O 6.360995 3.595693 5.158393
O 4.657979 4.435620 3.536189
O 8.601421 7.160723 8.317453
O 6.695093 7.918315 6.648761
O 8.430975 9.724270 7.891245
