20

Li 0.652657 0.571810 4.076060
Li 1.670403 1.463484 1.320939
Li 5.194625 4.551147 3.958052
V 1.376588 4.000110 4.751422
V 2.671054 5.137560 1.984217
V 4.189957 0.876886 3.289984
V 5.487781 2.010609 0.532481
Cu 6.231277 5.459385 1.202440
O 0.108387 5.330472 4.646559
O 0.678085 2.467403 4.885006
O 1.465560 6.520638 1.929502
O 2.470578 4.089192 3.397573
O 2.564356 0.373385 3.216784
O 2.472439 4.068732 0.666009
O 4.408543 1.937786 4.609730
O 4.315452 5.639714 2.067305
O 4.388161 1.942019 1.884419
O 5.380107 -0.521858 3.396874
O 6.187141 3.561883 0.388498
O 6.738399 0.667066 0.586023
