20

Li 1.021134 4.540145 1.627398
Li 0.206514 3.604963 3.949832
Li 0.120144 0.018167 2.454849
Li 2.166842 5.626441 -0.950484
Li 2.091993 1.967249 2.346565
Li 3.001698 2.902034 -0.086961
Li 2.960158 -0.640759 3.115082
Li 4.107805 0.272142 0.824324
V 0.989207 0.929946 0.202348
V 4.047266 3.800963 2.364506
O 0.915095 6.628059 2.424996
O 0.995462 2.644587 0.662948
O 2.231501 3.794947 3.132996
O 2.028968 0.148992 1.536499
O 4.213246 2.217671 1.601196
O 4.222446 -1.736457 -0.041722
F 5.087394 -0.588910 2.404779
F 3.056064 4.711417 0.843367
F 3.008433 1.058047 -0.775125
F 5.099224 3.004710 -0.913276
