52

Li 1.849044 4.791283 3.266217
Li 2.443116 9.868132 4.029292
Li 3.326120 1.877782 2.386789
Li 6.006488 0.820667 2.290711
Li 7.055696 7.113278 5.232189
Li 6.499304 6.115389 2.816011
Li 6.987285 9.052623 1.408655
Li 7.563419 3.553883 1.418029
Fe 0.816916 9.019773 0.770203
Fe 3.410928 3.635017 6.545176
Fe 4.868810 7.164741 -0.242143
Fe 7.586168 1.780767 5.517253
P 0.344967 4.379683 6.113673
P 0.271911 0.867545 2.269306
P 3.970349 6.303752 4.960302
P 4.512906 1.047806 5.102001
P 3.784078 9.767287 1.179174
P 4.417087 4.479074 1.316567
P 8.108965 9.875423 4.025976
P 7.866303 6.471124 0.079750
O 0.015465 0.556912 6.237287
O 0.701186 3.907104 4.733071
O 1.664138 4.321692 6.981465
O 0.057873 4.982928 2.277955
O 1.024054 9.341671 5.195230
O 0.369338 1.653598 0.952033
O 0.712173 7.255443 1.389745
O 1.672753 0.901477 2.925568
O 2.681550 6.434601 4.117373
O 3.409896 1.931084 5.778956
O 3.792784 7.086357 6.262958
O 3.269079 3.880535 2.175559
O 3.959412 10.347835 5.154742
O 2.530920 9.735411 0.216954
O 3.291811 9.140806 2.463199
O 4.180325 4.781174 5.282929
O 4.101510 5.978386 0.987322
O 4.836698 1.560500 3.715176
O 5.841026 1.089407 5.947942
O 4.318820 0.455548 1.242824
O 5.277093 6.766584 4.242901
O 4.503742 3.669264 0.021595
O 4.979737 8.910971 0.548745
O 5.826726 4.400776 1.990570
O 6.821465 9.762764 3.176098
O 7.586126 3.487148 4.784453
O 7.959134 8.991079 5.299802
O 7.448547 1.533631 1.138201
O 8.021785 5.840988 4.120929
O 6.619712 6.536892 -0.930519
O 7.308455 7.139154 1.317770
O 8.233085 10.143499 0.135397
