22

V 1.243319 4.889494 3.643583
V 2.320379 2.783474 1.186717
V 2.535073 6.432674 1.137215
V 4.863083 2.277515 3.946207
V 4.935050 5.907061 3.697326
V 6.023985 3.664374 1.439697
O 0.440819 2.415668 1.806011
O 1.555095 3.531438 4.620390
O 2.375741 0.970887 0.676244
O 2.140386 4.503232 2.061761
O 3.132173 5.688060 4.570608
O 4.143430 3.066582 0.540121
O 3.996822 6.448419 2.115270
O 5.053868 4.154228 3.048880
O 4.890357 7.731265 4.318612
O 6.805105 6.262376 3.188823
F 0.753838 5.926221 0.230924
F 1.362777 6.653682 2.739356
F 3.130815 2.203528 2.897477
F 5.910828 1.963625 2.257915
F 5.711213 5.286172 0.392508
F 6.580716 2.763899 4.766412
