10

Li 4.164589 5.733855 -1.462966
Li 1.594630 2.174116 2.985047
Fe 0.048176 0.068952 0.089839
Fe 2.659432 3.650880 0.351628
F 2.171534 4.341745 -1.125432
F 3.741523 2.348043 -0.885008
F 0.472918 2.116850 0.193679
F 4.830709 5.176612 0.137941
F 1.190172 4.757523 1.400624
F 3.158707 2.551061 1.543270
