20

Li 1.526229 6.335875 6.077950
Li 4.392208 14.142717 14.562198
Li 4.352351 9.441230 11.352469
Fe 1.643571 1.850861 3.056462
Sb 0.033566 0.034614 4.344523
Sb 5.506469 10.717369 9.243747
Sb 2.768966 12.322439 11.529284
Sb 2.776488 7.751333 8.366583
O 2.049191 5.039269 4.659391
O 1.226424 2.599186 4.856484
O 0.638242 3.740802 5.899350
O 4.902879 7.223069 7.605714
O 2.130417 9.838690 7.895935
O 4.022559 7.828221 8.401806
O 1.206308 7.193093 7.968006
O 3.435903 5.447839 8.700171
O 0.628404 8.419359 9.015652
O 4.893595 11.914925 10.750144
O 4.005905 12.515210 11.523965
O 3.391890 9.927204 11.779644
