98

Li 10.791499 -3.101784 2.343681
Li 9.132161 -0.956981 6.470015
Li 5.812252 3.334218 4.388601
Li 4.152925 5.479006 8.514916
Li 2.489019 7.629713 2.320862
Li 0.831959 9.771572 6.442284
La 8.351229 -2.948184 4.617515
La 11.566643 -1.103099 4.194870
La 10.775389 -0.059309 1.109638
La 2.434924 -0.152362 8.039686
La 7.537426 -1.917333 1.535248
La 5.877018 0.273259 5.638986
La 10.849024 4.675859 6.933705
La 9.067395 2.103978 5.219631
La 6.683626 -0.836672 -1.604383
La 10.014682 5.746903 3.840144
La 4.998251 1.341785 2.577565
La 9.946162 1.035452 -2.033222
La 3.377770 3.480325 6.663743
La 1.712481 5.631117 10.786829
La 1.608509 0.923231 4.945082
La 6.593196 5.325417 6.241096
La 4.929731 7.477256 10.363941
La 8.260787 3.213909 2.148725
La 9.193905 6.825394 0.746161
La 0.886066 6.706710 7.692226
La 0.768890 1.990910 1.853576
La 2.552088 4.563442 3.564077
La 4.095389 8.548300 7.270380
La 7.406999 4.294566 9.323363
La 5.750509 6.398776 3.143665
La 4.169024 2.436535 9.748975
La 0.046378 7.774414 4.593734
La 3.274612 9.626856 4.169403
Cu 9.970048 -2.040004 -0.755114
Cu 8.305549 0.111469 3.375849
Cu 6.638876 2.265753 7.482749
Cu 7.472207 1.188618 0.272176
Cu 0.002174 10.844123 3.344575
Cu 4.974377 4.417226 1.299448
Cu 1.660489 8.700642 9.538705
Cu 3.318805 6.557161 5.418560
O 10.411506 -2.610618 5.936668
O 11.217707 -3.652686 3.932816
O 7.038815 -2.158835 6.749142
O 11.226193 0.243987 6.198738
O 10.375322 -2.563848 0.761605
O 8.716414 -0.419601 4.895443
O 11.194379 -3.622532 -1.254493
O 7.859813 0.687612 6.989947
O 9.524928 -1.464658 2.874536
O 11.123790 3.283978 4.949327
O 6.144310 -1.122976 3.647256
O 10.460650 1.353847 3.079901
O 3.820635 -0.906756 5.909281
O 4.483763 1.023389 7.778705
O 8.800103 3.500213 7.211349
O 5.419485 3.841895 7.984070
O 9.557718 -1.507041 -2.268577
O 6.227999 2.796838 5.963173
O 4.569103 4.941070 10.096992
O 7.893579 0.643967 1.853611
O 8.742985 -0.453946 -0.255032
O 7.084600 1.689625 3.868669
O 1.258493 2.277659 6.940448
O 10.365570 4.393777 1.842416
O 9.556939 2.384890 -0.001849
O 6.246329 6.677487 8.241528
O 2.062486 4.276693 8.791468
O 7.905610 4.536068 4.109469
O 5.387474 -0.007653 0.546201
O 2.923375 0.123260 2.820645
O 3.718221 2.133239 4.659875
O 8.698084 6.546682 5.962560
O 3.726717 6.029908 6.925782
O 2.066019 8.176468 11.046517
O 5.386707 3.884263 2.812922
O 7.050834 1.733270 -1.309269
O 6.201428 2.831183 0.799374
O 4.532907 4.987855 4.921948
O 2.875185 7.130569 9.041921
O 9.466811 5.430492 -1.243629
O 1.162425 5.317521 5.700668
O 2.827354 3.163571 1.580608
O 5.477602 7.793677 5.133465
O 0.493624 3.390781 3.837045
O 2.158553 1.236831 -0.283005
O 7.144588 5.640908 1.013135
O 7.799825 7.583261 2.876691
O 2.103737 8.127715 5.912069
O 0.445805 10.270700 10.035480
O 3.750034 5.999769 1.798835
O 2.910624 7.084761 3.911652
O 1.254959 9.224816 8.030882
O 4.578855 8.830377 2.047401
O 0.397614 6.431077 2.596999
O 0.410354 10.316524 4.851483
O 1.217241 9.273569 2.851066
