15

Li 0.000000 2.978145 0.606459
Li 2.946049 2.911802 -2.917989
Li 2.946049 -0.066343 -1.447919
Fe 0.000000 0.000000 2.076529
Fe 0.000000 0.000000 0.000000
Ni 0.000000 2.978145 -1.470070
Ni 2.946049 -0.066343 0.628609
O 1.394206 4.667342 -0.928916
O 1.294282 1.338454 0.738635
O 1.509302 4.620459 -2.869317
O 1.313991 1.321761 2.662746
O 4.578107 4.501843 -4.345667
O 4.382796 1.203145 1.186396
O 4.597817 4.485151 -2.421556
O 4.497892 1.156262 -0.754005
