34

Ti 7.571562 10.415409 12.239407
Cr 1.258465 1.731139 2.034305
Cr 3.146766 4.328678 5.086738
Cr 5.663150 7.790205 9.154465
P 0.299286 5.790685 5.368797
P 4.094546 2.399205 7.522612
P 6.613291 6.951461 4.901571
P 2.239023 5.152741 9.354759
P 4.672074 9.702970 6.731887
P 8.517633 6.367984 8.853848
O 1.210394 2.760074 4.921834
O 2.495806 5.094970 3.577247
O 0.552801 7.214863 4.649198
O 4.446413 3.359657 4.679594
O 1.914252 5.343452 5.551729
O 0.051251 5.867806 6.527698
O 2.474312 1.766691 7.961098
O 3.821537 3.632048 6.638305
O 5.095576 5.924081 5.318835
O 1.978426 3.739533 8.957949
O 0.699947 5.708518 8.824348
O 3.173405 9.108189 5.803896
O 5.616568 2.984956 8.441444
O 8.129191 6.365010 5.423834
O 6.856287 8.375346 5.276038
O 3.765282 6.156731 8.941978
O 4.912375 8.463206 7.609409
O 6.270549 10.335122 6.267256
O 8.740713 6.262801 7.695408
O 6.914647 6.828772 8.653526
O 4.319775 8.737399 9.575879
O 8.277068 4.930844 9.556036
O 6.360111 7.010751 10.676249
O 7.600782 9.398658 9.298514
