15

Li 2.406099 3.998765 3.956133
Li 5.815626 5.703528 5.660896
Li 2.407059 3.998694 6.772031
Co 6.757471 9.928696 5.155502
Co 6.743507 9.872989 7.956660
Co 3.406673 8.204572 6.288243
Co 3.406896 8.205195 3.455388
S 1.820846 2.148279 2.767997
S 5.215226 3.806271 4.468695
S 4.931578 7.786394 5.193040
S 1.536562 6.088886 3.495533
S 1.836406 2.117484 5.569884
S 5.215632 3.807097 7.259497
S 1.536528 6.088370 6.300541
S 4.925245 7.777115 7.988162
