76

Li 3.650156 5.326454 2.932861
Li 3.650156 4.320438 -0.183678
Li 5.948706 14.973346 4.540400
Li 5.948706 13.967330 1.423861
P 0.232119 13.001695 4.044198
P 0.232119 15.938981 0.927659
P 2.850821 17.465042 4.229959
P 2.871257 0.577231 2.624300
P 2.850821 11.475634 1.113420
P 2.871257 9.069661 -0.492239
P 6.727596 10.224123 4.848963
P 6.748032 7.818150 3.243304
P 6.727596 18.716553 1.732424
P 6.748032 1.828742 0.126765
P 9.366733 3.354803 3.429064
P 9.366733 6.292089 0.312525
W 0.664337 6.530348 5.366173
W 0.664337 3.116544 2.249634
W 3.706261 12.085723 4.345298
W 3.706261 16.854953 1.228759
W 5.892591 2.438831 3.127965
W 5.892591 7.208061 0.011426
W 8.934516 16.177240 2.107090
W 8.934516 12.763436 -1.009449
O 0.614423 2.927986 4.185674
O 0.590589 14.506456 4.076473
O 0.684456 6.695946 3.414927
O 1.419872 8.465244 5.427023
O 1.323979 17.068169 4.192221
O 0.614423 6.718906 1.069135
O 2.207131 5.531354 5.471749
O 1.620891 12.234362 4.112329
O 0.590589 14.434220 0.959934
O 0.684456 2.950946 0.298388
O 1.419872 1.181648 2.310484
O 1.323979 11.872507 1.075682
O 2.207131 4.115538 2.355210
O 1.620891 16.706314 0.995790
O 2.868540 19.048907 3.957625
O 3.261767 10.031591 4.702614
O 3.678683 16.767861 3.223947
O 2.868540 9.891769 0.841086
O 3.261767 18.909085 1.586075
O 4.329169 13.755716 4.284306
O 3.685575 11.647445 2.421712
O 3.898555 1.717224 2.928721
O 3.678683 12.172815 0.107408
O 4.329169 15.184961 1.167767
O 3.685575 17.293231 -0.694827
O 3.898555 7.929668 -0.187818
O 5.700298 11.364116 4.544542
O 5.913277 2.000572 5.051551
O 5.269684 4.108824 3.188957
O 5.920169 7.120969 4.249315
O 5.700298 17.576560 1.428003
O 5.913277 7.646339 1.935012
O 5.269684 5.538068 0.072418
O 6.337086 0.384699 2.770648
O 6.730312 9.402015 3.515638
O 5.920169 2.525923 1.132776
O 6.337086 9.262193 -0.345891
O 6.730312 0.244877 0.399099
O 7.977961 2.587470 3.360934
O 7.391721 15.178246 2.001514
O 8.274873 7.421277 3.281042
O 8.178981 18.112136 2.046240
O 8.914397 16.342838 4.058336
O 9.008264 4.859564 3.396790
O 7.977961 7.059422 0.244395
O 7.391721 13.762430 -1.115025
O 8.984430 12.574878 3.287589
O 8.274873 2.225615 0.164503
O 8.178981 10.828540 -1.070299
O 8.914397 12.597838 0.941797
O 9.008264 4.787328 0.280251
O 8.984430 16.365798 0.171050
