48

V 1.119451 2.344860 8.982967
V 1.119300 1.404537 1.573519
V 3.278192 2.800108 11.775234
V 3.289515 6.549776 8.921491
V 3.278258 0.949670 4.365734
V 3.289581 4.699338 1.511992
V 5.448473 6.094910 11.713707
V 5.448322 5.154587 4.304259
F 0.007146 7.423800 13.199147
F 0.284890 1.455104 10.364734
F 0.007054 3.825774 5.789714
F 0.421618 1.391684 7.796566
F 0.284542 2.294648 2.955792
F 0.421533 2.357993 0.387495
F 1.960060 3.557878 12.850872
F 2.115526 6.256255 10.357011
F 2.069518 3.228283 10.333653
F 1.960027 0.191905 5.441853
F 2.524934 1.226679 11.852722
F 2.232741 6.145033 7.739718
F 2.360898 3.075284 7.786245
F 2.115355 4.992721 2.948025
F 2.069308 0.521510 2.924707
F 2.545853 0.883152 9.007887
F 2.524599 2.523234 4.443726
F 2.232681 5.103990 0.330539
F 2.360746 0.674465 0.377361
F 2.545728 2.866378 1.598876
F 4.022045 4.633069 11.688350
F 4.207026 6.824982 12.909865
F 4.335091 2.395456 12.956686
F 4.043173 4.976213 8.843500
F 4.021920 6.616295 4.279339
F 4.498464 6.977937 10.362518
F 4.452418 2.506725 10.339201
F 4.206875 4.424163 5.500981
F 4.335032 1.354414 5.547508
F 4.042838 6.272767 1.434504
F 4.607746 7.307542 7.845373
F 4.498254 4.271164 2.953573
F 4.452247 1.243192 2.930215
F 4.607713 3.941568 0.436353
F 6.146240 5.141453 12.899731
F 6.283230 5.204799 10.331434
F 6.146154 6.107755 5.490660
F 6.560719 3.673673 7.497512
F 6.282882 6.044342 2.922492
F 6.560627 0.075647 0.088079
