20

Li 1.010308 6.775639 3.311492
Li 4.041225 3.862549 1.234235
Mn 5.027540 6.753927 1.743170
Mn 3.054904 0.971176 5.559322
Mn 1.010308 2.902303 0.503866
Fe 4.041225 7.735884 4.041860
Fe 2.029732 1.959561 3.050900
Fe 6.052711 5.765542 4.251591
O 4.883432 8.451590 5.554301
O 5.783838 7.546237 3.291408
O 4.206228 6.029402 5.106536
O 2.298605 7.925536 4.792312
O 5.220142 5.010639 2.633475
O 3.199012 7.020184 2.529420
O 2.862301 2.714456 4.669016
O 0.772678 4.668146 4.399769
O 3.876222 1.695703 2.195957
O 1.859128 3.668111 1.953585
O 0.161481 2.136502 3.888169
O 1.247938 1.136468 1.441987
