72

P 0.300514 13.162121 4.007145
P 0.300514 16.089897 0.920466
P 2.886652 17.715685 4.184364
P 2.952317 0.625096 2.598850
P 2.886652 11.536333 1.097685
P 2.952317 9.125576 -0.487829
P 6.804634 10.375769 4.810366
P 6.870298 7.965012 3.224852
P 6.804634 18.876249 1.723687
P 6.870298 1.785660 0.138173
P 9.456437 3.411448 3.402071
P 9.456437 6.339224 0.315392
W 0.696549 6.574820 5.330551
W 0.696549 3.175853 2.243872
W 3.755704 12.181944 4.306591
W 3.755704 17.070073 1.219912
W 6.001247 2.431272 3.102625
W 6.001247 7.319401 0.015946
W 9.060402 16.325492 2.078665
W 9.060402 12.926525 -1.008014
O 0.474832 2.913189 4.139123
O 0.619527 14.665421 4.043527
O 0.524904 6.826621 3.391877
O 1.522319 8.498998 5.433622
O 1.391312 17.304811 4.144745
O 0.474832 6.837484 1.052444
O 0.619527 14.586596 0.956848
O 1.764798 12.426433 4.102783
O 2.235854 5.669216 5.458332
O 0.524904 2.924051 0.305198
O 1.522319 1.251674 2.346943
O 1.391312 11.947206 1.058066
O 1.764798 16.825585 1.016104
O 2.235854 4.081456 2.371653
O 2.982954 19.299721 3.935651
O 3.295791 10.080167 4.631427
O 2.982954 9.952297 0.848972
O 3.702246 17.032923 3.143763
O 3.295791 19.171850 1.544748
O 3.707241 11.741487 2.428687
O 4.220984 13.841782 4.216319
O 4.067975 1.726649 2.899187
O 3.702246 12.219094 0.057084
O 3.707241 17.510531 -0.657992
O 4.220984 15.410236 1.129640
O 4.067975 8.024023 -0.187492
O 5.688976 11.477322 4.510029
O 5.535967 4.091109 3.192897
O 6.049710 1.990814 4.980529
O 6.054705 7.282251 4.265453
O 5.688976 17.774696 1.423350
O 5.535967 5.659563 0.106218
O 6.049710 7.759858 1.893850
O 6.461160 0.329495 2.777789
O 6.054705 2.468422 1.178774
O 6.773997 9.549048 3.473565
O 6.461160 9.421178 -0.308891
O 6.773997 0.201624 0.386892
O 7.521097 15.419889 1.950884
O 7.992153 2.675760 3.306433
O 8.365639 7.554138 3.264471
O 8.234632 18.249671 1.975594
O 9.232047 16.577294 4.017339
O 7.521097 13.832128 -1.135795
O 7.992153 7.074912 0.219754
O 9.137424 4.914748 3.365689
O 9.282119 12.663861 3.270093
O 8.365639 2.196534 0.177792
O 8.234632 11.002347 -1.111085
O 9.232047 12.674724 0.930660
O 9.137424 4.835924 0.279010
O 9.282119 16.588156 0.183414
