34

Li 5.880368 8.172641 5.146873
Li 3.899339 5.418735 7.236649
Li 4.721365 6.563342 9.417323
Li 2.246798 5.328545 9.365259
Li 4.721897 4.404320 9.387558
Li 1.077994 3.731687 4.392005
Li 1.882960 2.707320 2.255614
Li 3.543118 2.807472 4.445083
Li 1.073278 1.568316 4.395107
Li 5.873557 2.945966 0.186824
V 4.845001 6.785247 2.162395
V 3.845992 2.799550 7.113585
V 1.958214 5.322015 2.112830
V 4.856056 4.208286 2.159027
V 0.914556 3.915890 7.085832
V 0.947393 1.361196 7.064636
Cr 3.902336 5.425676 4.728540
Cr 1.890416 2.705965 9.670809
O 4.886260 6.793067 5.891774
O 3.003031 6.615310 3.426229
O 5.863487 8.135677 8.222251
O 1.899746 5.267892 5.861845
O 5.758356 5.554611 3.432843
O 3.984896 5.434720 0.963354
O 3.006858 4.142370 3.404229
O 0.859215 3.933851 0.892424
O 4.862992 4.161434 5.891659
O 2.834113 3.980072 8.367776
O 3.870973 2.823843 0.919849
O 0.044405 2.618289 8.335257
O 1.933054 2.763075 5.905214
O 2.865553 1.553521 8.387055
O 0.854947 1.339956 0.890203
O 5.822562 2.950270 3.258374
