30

Li 4.728364 -1.559627 4.290862
Li 1.902501 -0.128825 4.154132
Li 4.724188 0.866568 4.207539
Li 0.947342 1.150553 8.725752
Li 3.788383 2.152613 8.777047
Li 0.949781 3.592708 8.620847
Co 4.726125 -1.559950 6.728830
Co 3.814768 -0.317942 9.189557
Co 0.968759 1.167838 1.968437
Co 3.763587 2.153462 2.020962
Co 1.898120 2.315722 4.461946
Ni 1.922158 -0.156501 6.613187
Ni 4.746505 0.836324 6.667079
Ni 0.960486 3.587383 1.889455
O 4.775283 -1.630804 1.059455
O 3.019471 -1.366425 7.928926
O 5.511657 -0.491963 7.976130
O 3.830670 -0.335339 5.677580
O 1.851172 -0.124448 0.871717
O 2.979138 0.816311 7.886582
O 0.892047 1.194581 5.377782
O 4.723162 0.888356 0.914064
O 2.739248 1.150316 3.179145
O 3.786628 2.208211 5.433310
O 0.223292 2.411244 3.133733
O 1.927434 2.268881 0.979406
O 2.783598 3.299268 3.194155
O 0.912866 3.655508 5.322158
O 5.662214 -2.842013 7.724397
O 5.677427 -2.868288 3.138148
