68

V 2.116640 8.401674 4.606898
V 2.111368 4.670796 7.399887
V 2.135007 4.059293 1.431403
V 2.140279 0.328414 10.598443
V 6.363015 8.356348 1.478159
V 6.368287 4.625470 10.645199
V 6.391926 4.013967 4.676703
V 6.386654 0.283089 7.469704
S 0.289189 2.189359 6.073129
S 0.858356 1.023890 1.792197
S 0.927233 3.375932 10.240737
S 3.324414 7.718313 7.757593
S 3.393290 5.366271 4.246104
S 3.962458 6.531740 11.925201
S 4.540835 2.153022 0.151401
S 5.110003 3.318491 7.830498
S 5.178880 0.966449 4.319009
S 7.576061 5.308830 1.835865
S 7.644937 7.660872 10.284405
S 8.214105 6.495403 6.003473
O 0.426270 5.499122 6.729832
O 0.538412 5.375390 1.452846
O 0.555155 8.009453 9.888461
O 0.610800 7.030498 4.827332
O 0.749999 1.126483 5.167650
O 0.994095 2.471614 2.066125
O 1.190249 0.709467 0.399612
O 1.198276 4.376269 9.205485
O 1.440024 2.840291 6.732930
O 1.398069 2.036429 9.797614
O 1.672470 3.759330 11.465196
O 1.752495 0.225066 2.685921
O 2.499152 4.567447 3.352380
O 2.579177 8.101711 6.533135
O 2.853578 6.378810 8.200716
O 2.811623 7.182672 11.265400
O 3.061398 5.051848 5.638689
O 3.053371 0.033888 8.792845
O 3.257552 6.813995 3.972176
O 3.501648 5.468864 0.870651
O 3.640847 2.688108 1.210969
O 3.713235 1.033009 4.585455
O 3.696492 3.667071 8.109870
O 3.825377 1.156741 11.268498
O 4.677917 7.528022 0.808104
O 4.806801 5.017691 3.966732
O 4.790058 7.651753 7.491147
O 4.862447 5.996646 10.865634
O 5.001646 3.215898 11.205951
O 5.245741 1.870767 8.104426
O 5.449923 8.650875 3.283757
O 5.441895 3.632914 6.437913
O 5.691671 1.502090 0.811202
O 5.649716 2.305952 3.875886
O 5.924117 0.583052 5.543468
O 6.004142 4.117316 8.724222
O 6.750799 8.459697 9.390681
O 6.830823 4.925433 0.611406
O 7.105225 6.648333 2.278988
O 7.063269 5.844472 5.343672
O 7.305018 4.308493 2.871117
O 7.313045 7.975296 11.676990
O 7.509199 6.213149 10.010477
O 7.753295 7.558279 6.908952
O 7.892494 1.654274 7.249270
O 7.948139 0.675310 2.188142
O 7.964882 3.309372 10.623756
O 8.077024 3.185640 5.346770
