28

Li 2.097977 2.543019 9.074144
Li 6.094613 2.259927 10.160948
Li 6.107446 2.258916 5.176434
Li 4.134990 -0.292651 4.097187
Cr 4.095654 2.401568 2.270346
Cr 5.150963 0.961806 7.345031
Cr 5.150895 -1.691272 7.322709
Sn 1.040029 3.950737 2.235777
Sn 1.040135 1.284933 2.213575
Sn 2.079123 -0.147261 7.277301
Sb 2.149657 2.539155 5.145227
Sb 4.217371 -0.298530 10.032064
O 0.934886 4.063560 6.142146
O 0.144188 2.681346 3.403820
O 2.107589 2.542172 1.121891
O 6.132369 2.257383 3.333265
O 6.143202 2.256592 8.340994
O 0.934837 1.186748 6.117764
O 3.036077 3.692387 3.428713
O 3.036238 1.260766 3.408316
O 1.907795 -0.135081 1.009216
O 4.267472 2.389168 6.257487
O 3.236962 0.990338 8.529336
O 3.237042 -1.448585 8.508907
O 4.171037 -0.295290 6.252244
O 5.226092 1.095787 1.127714
O 5.997534 -0.424712 8.491502
O 5.225999 -1.835692 1.103370
