36

Fe 8.380005 4.461923 4.465576
Fe 0.505699 5.080528 6.365296
Fe 4.206463 5.955570 6.949487
Fe 3.677532 8.310987 10.008730
Fe 7.928656 6.835676 7.537057
Ni 4.795197 3.614299 3.899690
P 2.122238 2.982985 5.573496
P 2.122238 8.211696 5.148428
P 2.122238 5.193598 9.139518
P 6.313828 6.715500 4.763835
P 6.313828 3.708214 8.759266
P 6.313828 8.937864 8.323363
O 0.548935 1.089284 2.826542
O 0.548935 4.043796 2.245838
O 0.548935 2.697736 4.615777
O 1.806160 1.678928 6.483913
O 3.696534 3.299137 5.163377
O 2.373558 4.270757 6.209709
O 1.806160 7.938621 3.870244
O 2.373558 6.827219 5.891019
O 4.751093 7.040835 3.993768
O 2.373558 5.468576 7.879733
O 6.625238 5.380116 4.543201
O 4.751093 2.552249 8.348234
O 3.696534 9.316142 5.577620
O 1.806160 6.546514 9.357590
O 6.022996 6.467129 6.007165
O 3.696534 4.889715 9.865975
O 6.022996 5.060452 7.990750
O 6.625238 3.971980 10.024187
O 6.022996 7.627689 7.710810
O 4.751093 8.659965 8.764388
O 6.625238 10.230364 7.426531
O 7.871592 9.200316 9.290605
O 7.871592 7.880711 11.661187
O 7.871592 10.826985 11.060589
