14

Li 0.745762 3.504541 5.635552
V 3.728809 -0.576353 1.472147
V 3.728809 -0.576353 3.910371
V 3.728809 2.009227 5.635552
Zn 5.886650 2.174449 3.441380
Zn 1.570968 1.844004 2.953276
O 5.087235 -1.334203 2.676203
O 2.438092 0.059398 2.689055
O 5.019526 -1.212105 5.131687
O 5.019526 1.182556 4.471295
O 5.019526 1.182556 6.729481
O 2.370383 0.181497 5.144539
O 2.438092 2.835897 4.541624
O 2.438092 2.835897 6.799809
