34

Li 4.843777 -1.434392 4.488598
Li 5.997852 -3.025696 5.149496
Li 2.364380 -0.210373 4.472981
Li 4.035322 -0.315210 2.342438
Li 4.874844 0.677113 4.478272
Li 1.159638 1.459563 9.506609
Li 3.657156 2.331592 9.494476
Li 1.984639 2.476132 7.347363
Li 1.187828 3.565365 9.517654
Li 0.014201 5.195523 0.341254
V 4.992092 0.918224 7.205427
V 4.017484 -0.303511 9.755125
V 2.006471 -0.138500 7.203591
V 1.992717 2.467936 4.839371
V 1.028840 3.799073 2.319255
Cr 5.000978 -1.665454 7.156435
Cr 1.020220 1.217549 2.265694
Cr 4.026648 2.283347 2.257178
O 5.089680 -1.760458 1.021579
O 3.053867 -1.480991 8.341723
O 1.940976 -0.161967 1.110669
O 6.007661 -3.032071 8.255287
O 4.010589 -0.325140 6.007830
O 5.939898 -0.454934 8.322339
O 3.032518 1.020195 8.375026
O 0.932791 1.207531 6.074310
O 5.087491 0.952937 1.097338
O 2.968640 1.137597 3.426226
O 4.073032 2.301910 6.084616
O 0.078169 2.567514 3.436379
O 2.041924 2.409726 1.119626
O 3.014035 3.604900 3.429938
O 0.931476 3.916292 6.088312
O 6.026543 -3.056992 3.291458
