44

Li 1.270398 6.463748 4.109167
Li 1.270294 3.442196 12.406542
Li 3.686438 3.161707 4.653592
Li 3.686314 0.140023 12.950982
Mn 1.243359 3.841865 6.319386
Mn 1.243077 6.064133 14.616166
Mn 3.713601 0.539704 2.443997
Mn 3.713363 2.761939 10.740781
P 1.288108 5.261024 1.341203
P 1.287875 4.644774 9.638938
P 1.239661 2.662618 2.821416
P 1.239523 0.639359 11.118673
P 3.717185 5.964471 5.941575
P 3.717066 3.941225 14.238652
P 3.668772 1.959089 7.421438
P 3.668733 1.342839 15.718510
O 0.186868 2.248991 6.740814
O 0.186630 1.053261 15.038170
O 0.355238 1.580937 2.163718
O 0.355105 1.720947 10.461251
O 0.633856 3.382129 3.977808
O 0.633727 6.523582 12.275545
O 1.512965 3.687508 1.647978
O 1.512851 6.218238 9.945620
O 1.737386 4.474024 8.256295
O 1.737252 5.431900 16.553638
O 2.161091 5.990453 2.473169
O 2.161002 3.915248 10.770445
O 2.335484 5.344674 5.479057
O 2.335340 4.561246 13.776360
O 2.621397 2.042591 3.283758
O 2.621258 1.259156 11.581128
O 2.795705 2.688629 6.289720
O 2.795646 0.613358 14.587015
O 3.219351 1.171936 0.506749
O 3.219371 2.129787 8.803758
O 3.443856 0.385606 7.114529
O 3.443772 2.916296 15.412123
O 4.323020 0.080295 4.784607
O 4.322881 3.221622 13.082310
O 4.601623 4.882930 6.598932
O 4.601509 5.022853 14.896335
O 4.769987 5.550622 2.022020
O 4.769869 4.354885 10.319354
