14

Li 0.710277 1.029077 1.222908
Li 5.181009 7.123294 8.426971
Mn 0.000000 2.603364 3.352118
Mn 2.945643 4.076185 4.824940
V 2.945643 1.472821 3.910181
V 2.945643 4.076185 2.387580
O 1.489694 2.149534 2.553536
O 1.520888 2.169348 4.731598
O 1.520888 4.473294 3.384114
O 4.168503 3.488938 3.892940
O 1.722783 4.663433 5.756939
O 4.370397 5.983023 4.918281
O 4.370397 3.679077 6.265765
O 4.401592 6.002837 7.096343
