37

Li 0.012799 5.103856 1.131138
Li 1.932698 4.685480 3.409412
Li 5.478007 3.882172 -0.473498
Li 8.274789 0.986355 2.220957
V 3.250872 0.616862 0.054076
V 0.385778 3.694255 5.514035
V 1.594845 0.970469 5.871065
V 4.162190 2.940707 1.718092
V 7.879960 2.212674 -2.149270
V 2.243571 3.326965 7.710220
V 5.141577 5.290539 3.285065
V 5.926998 2.545778 3.919041
V 8.716547 4.551095 -0.313952
V 9.727565 1.804628 0.078589
V 6.886038 4.920682 5.555071
O 0.497129 3.200511 3.778643
O 2.222036 4.072850 1.366331
O 1.400920 0.264996 4.141697
O 4.190917 2.329882 -0.004677
O 3.226594 1.223771 1.795856
O 0.383106 4.519752 7.213128
O 6.974899 0.546692 -1.912519
O 2.272267 2.609835 5.871039
O 5.020657 4.613874 1.413679
O 1.443177 1.503081 7.741012
O 4.059250 3.610653 3.409163
O 6.027906 1.918050 2.107128
O 5.095571 0.962548 4.010750
O 8.808882 3.815946 -2.199320
O 7.816189 2.954164 -0.329931
O 9.731405 0.999154 -1.750016
O 3.282361 4.950616 7.504050
O 6.898695 4.182306 3.764265
O 5.991947 3.159909 5.724167
O 8.734740 5.212276 1.442997
O 7.912374 1.525817 4.230328
O 9.728855 2.395009 1.882571
