26

Li 2.689198 2.434292 1.640986
Li 7.723792 4.719556 4.406681
Ni 0.289731 4.649500 0.161660
Ni 4.861565 0.109225 2.912781
Ni 5.324325 2.504348 5.886006
Ni 9.896159 2.275391 2.973361
P 1.613446 4.401109 3.058057
P 3.524951 0.396891 5.801772
P 6.648041 2.752739 2.989609
P 8.559545 1.987725 0.084370
O 0.802977 3.721489 4.204911
O 0.927513 3.670029 1.811305
O 1.520558 1.152857 2.870463
O 2.057407 0.850793 5.811862
O 3.077496 3.924820 3.052742
O 3.642035 3.645277 0.194672
O 4.314526 1.071608 4.636837
O 4.223491 1.121075 1.240541
O 5.837572 3.432359 1.842755
O 5.962107 3.483819 4.236362
O 6.555152 1.231759 3.015680
O 7.092001 1.533823 0.074281
O 8.112090 3.229028 2.994925
O 8.676630 3.508571 5.852994
O 9.349120 1.313008 1.249306
O 9.258085 1.263541 4.645601
