44

Li 6.846730 -0.085159 10.496890
Li 4.280555 0.863809 7.368552
Li 4.684121 3.703730 7.620008
Li 3.300130 5.428453 11.764545
Li 4.146924 1.107733 3.525849
Li 0.426547 5.743791 7.928909
Li 7.919238 -1.421826 6.386813
Li 0.212069 5.933747 3.827363
V 1.965938 1.263487 1.476897
V 7.856024 1.510672 8.227627
V 5.935042 3.932309 12.416047
V 3.916018 6.448207 8.648156
C 5.650480 -1.130468 7.942960
C 5.376821 2.446940 9.679009
C 6.466629 5.439236 7.272547
C 2.196193 6.410287 6.039667
C 6.218519 1.487571 5.598297
C 1.448013 -0.154726 6.706262
C 1.699039 3.752541 8.343500
C 2.450746 2.815840 4.269150
O 6.889134 -0.607404 7.715626
O 5.632142 -1.529746 8.962992
O 7.386590 -1.227328 3.669260
O 7.464536 1.826264 6.390779
O 6.123956 3.438229 10.500528
O 5.598297 2.304544 8.531950
O 4.471323 1.556169 9.935218
O 5.061551 0.846471 5.854846
O 6.096656 1.834367 4.548787
O 6.044100 5.543663 8.337281
O 5.959838 4.350799 6.434963
O 3.456949 -0.825309 3.393100
O 4.360688 -1.243313 7.192086
O 2.177507 0.827530 7.556045
O 1.773530 -0.365264 5.607331
O 1.859986 3.264867 9.295139
O 2.822050 4.431388 8.071500
O 3.498585 3.588376 4.005220
O 1.990107 3.103008 5.289367
O 1.902589 1.684584 3.459796
O 0.352246 3.616580 7.622644
O 0.429407 6.618542 10.358673
O 0.992771 5.890949 6.328815
O 2.114349 6.645988 4.926133
