96

Li 6.885165 0.000000 2.216447
Li 0.000000 6.885165 4.041060
Li 6.885165 0.000000 5.345200
Li 6.885165 6.885165 3.128754
Li 0.000000 6.885165 0.912307
Li 0.000000 0.000000 0.000000
Cr 4.200006 5.229076 0.770186
Cr 9.570324 8.541253 0.770186
Cr 2.685159 12.114241 2.358567
Cr 8.541253 4.200006 5.487321
Cr 5.229076 9.570324 5.487321
Cr 11.085170 1.656089 2.358567
Cr 1.656089 2.685159 3.898940
Cr 12.114241 11.085170 3.898940
P 12.962135 4.185795 2.442480
P 3.474282 5.405378 3.963298
P 9.584535 12.962135 3.815027
P 1.479787 3.410883 0.834545
P 8.364952 3.474282 2.294209
P 10.359446 1.479787 5.422962
P 12.290542 10.359446 0.834545
P 11.070959 6.076970 5.571234
P 7.693359 11.070959 0.686273
P 6.885165 6.885165 0.000000
P 2.699370 7.693359 5.571234
P 6.076970 2.699370 0.686273
P 0.808194 9.584535 2.442480
P 0.000000 0.000000 3.128754
P 4.185795 0.808194 3.815027
P 5.405378 10.296048 2.294209
P 10.296048 8.364952 3.963298
P 3.410883 12.290542 5.422962
O 4.296976 5.418363 2.673945
O 5.418363 9.473353 3.583562
O 4.409136 5.043879 5.129523
O 10.690912 6.834159 4.176110
O 7.671850 12.569887 0.593431
O 11.569363 3.533990 2.254361
O 0.862642 0.866360 4.084963
O 7.751525 7.747807 0.956210
O 3.440971 0.078271 2.680441
O 9.075088 2.283864 5.489748
O 2.588189 12.303528 0.454808
O 3.533990 2.200967 4.003146
O 6.018804 6.022522 0.956210
O 6.963435 10.326136 5.809194
O 3.079417 6.936170 4.176110
O 10.326136 6.806894 0.448313
O 8.085607 12.983644 3.722184
O 10.236340 11.569363 4.003146
O 2.200967 10.236340 2.254361
O 12.569887 6.098480 5.664076
O 13.719324 3.805747 1.047356
O 3.444193 6.963435 0.448313
O 5.684722 0.786685 3.722184
O 8.351966 4.296976 3.583562
O 1.841286 2.476029 2.000769
O 6.098480 1.200442 0.593431
O 5.043879 9.361194 1.127984
O 8.726451 4.409136 1.127984
O 11.929044 11.294300 2.000769
O 9.964582 13.719324 5.210151
O 11.580406 9.169029 3.896512
O 7.747807 6.018804 5.301297
O 12.903969 0.862642 2.172544
O 9.086132 10.419155 0.874393
O 4.695242 11.486465 5.489748
O 9.361194 8.726451 5.129523
O 12.303528 11.182141 5.802699
O 2.283864 4.695242 0.767759
O 6.022522 7.751525 5.301297
O 11.294300 1.841286 4.256738
O 4.684198 3.351175 0.874393
O 9.169029 2.189923 2.360995
O 11.486465 9.075088 0.767759
O 12.907687 12.903969 4.084963
O 1.466802 2.588189 5.802699
O 11.182141 1.466802 0.454808
O 10.419155 4.684198 5.383114
O 0.786685 8.085607 2.535323
O 4.601301 11.580406 2.360995
O 10.329358 13.692059 2.680441
O 0.866360 12.907687 2.172544
O 2.476029 11.929044 4.256738
O 13.692059 3.440971 3.577066
O 0.078271 10.329358 3.577066
O 3.351175 9.086132 5.383114
O 6.834159 3.079417 2.081397
O 6.806894 3.444193 5.809194
O 3.805747 0.051005 5.210151
O 2.189923 4.601301 3.896512
O 12.983644 5.684722 2.535323
O 9.473353 8.351966 2.673945
O 0.051005 9.964582 1.047356
O 6.936170 10.690912 2.081397
O 1.200442 7.671850 5.664076
