48

Li 5.398876 -0.606144 8.171713
Li 4.764305 5.868743 9.222013
Li 7.336896 5.118399 7.964771
Li 1.603367 4.759952 8.386145
Li 4.114585 3.989440 7.149192
Li 3.496193 2.061526 5.050992
Li 6.004994 1.291755 3.815236
Li 0.953648 2.880648 6.313323
Li 0.319077 0.952480 4.248261
Li 2.858976 0.173168 2.997180
Li 2.221760 6.687865 4.058731
Ni 6.984365 4.151755 10.146706
Ni 6.357525 2.258399 8.058915
Ni 3.146353 1.121552 7.233872
Ni 5.727528 0.361103 5.998810
Ni 5.091059 -1.548248 3.945099
Ni 2.571600 -0.775207 5.186105
Ni 6.670945 3.205077 5.890003
Ni 4.454720 4.927921 4.967115
Ni 1.915613 5.734090 6.220681
Ni 3.802339 3.015301 2.889041
Ni 1.263233 3.821470 4.142607
Ni 0.626893 1.894592 2.049264
Ni 7.614361 6.049051 5.781197
O 4.516519 1.322754 8.690660
O 7.072856 0.477728 7.395329
O 6.269034 5.932426 10.810291
O 6.553094 -1.361217 5.357051
O 3.936399 -0.558342 6.645966
O 5.518419 3.981924 8.736636
O 7.496122 1.364754 5.385094
O 4.987130 2.134583 6.620950
O 2.297123 2.778564 7.794019
O 1.781554 0.904678 5.774008
O 6.788796 -0.631684 3.307593
O 4.403075 0.265778 4.616282
O 0.730823 6.614808 8.914386
O 5.845768 5.045400 6.394913
O 3.420830 5.970827 7.741317
O 2.616672 4.025821 5.608088
O 0.199534 4.767467 6.798700
O 5.263619 3.178253 4.391635
O 2.076509 2.071417 3.466924
O 1.201433 7.426637 6.844677
O 3.641444 6.677974 5.642798
O 1.314878 0.080558 1.378078
O 0.454333 5.571138 4.718088
O 3.101280 4.723570 3.501635
