28

Li 6.940760 6.940760 6.940760
Li 1.869149 1.712536 5.450841
Li 1.722944 5.304636 5.440440
Li 1.858748 1.858748 1.858748
Li 1.712536 5.450841 1.869149
Li 3.804316 0.222624 3.359068
Li 3.359068 3.804316 0.222624
Li 5.450841 1.869149 1.712536
Li 5.304636 5.440440 1.722944
Li 5.440440 1.722944 5.304636
Li 5.294235 5.294235 5.294235
Li 0.222624 3.359068 3.804316
Sb 0.165811 6.997573 3.415881
Sb 3.415881 0.165811 6.997573
Sb 3.747503 3.747503 3.747503
Sb 6.997573 3.415881 0.165811
O 7.122961 1.726454 2.874745
O 0.706947 0.040423 5.308146
O 1.726454 2.874745 7.122961
O 1.855238 4.288639 3.541269
O 2.874745 7.122961 1.726454
O 3.622115 5.436930 6.456437
O 3.541269 1.855238 4.288639
O 4.288639 3.541269 1.855238
O 5.308146 0.706947 0.040423
O 5.436930 6.456437 3.622115
O 6.456437 3.622115 5.436930
O 0.040423 5.308146 0.706947
