24

Li 2.279201 4.425743 2.195973
Li 7.764386 1.475248 2.756487
Sb 2.786854 1.475248 4.800500
Sb 7.256733 4.425743 0.151961
P 0.961041 1.475248 1.987373
P 4.083251 4.425743 4.563174
P 5.960337 1.475248 0.389287
P 9.082547 4.425743 2.965087
O 0.508256 4.425743 3.112432
O 1.276560 1.475248 3.525523
O 1.763975 0.295480 1.241155
O 1.763975 2.655015 1.241155
O 3.362131 5.659652 3.858161
O 3.362131 3.191834 3.858161
O 4.003444 4.425743 1.153240
O 4.474408 1.475248 0.956273
O 5.569179 4.425743 3.996187
O 6.040143 1.475248 3.799220
O 6.681456 0.241339 1.094295
O 6.681456 2.709157 1.094295
O 8.279612 3.245976 3.711306
O 8.279612 5.605510 3.711306
O 8.767027 4.425743 1.426938
O 9.535332 1.475248 1.840029
