28

Li 2.003157 2.362181 8.571353
Li 5.602309 2.107401 9.568604
Li 5.636341 2.102908 4.776404
Li 3.927858 -0.289445 3.802211
Ti 1.005671 3.674937 2.066548
Ti 1.024353 1.187988 2.067531
Ti 1.983841 -0.139724 6.879728
Co 3.811180 2.236846 2.027586
Co 4.807387 0.888814 6.851707
Co 4.802285 -1.589799 6.853549
Ni 1.900976 2.372522 4.725327
Ni 3.833378 -0.279549 9.492245
O 0.877079 3.750026 5.834956
O 0.227632 2.490976 3.199931
O 1.905063 2.375826 0.954143
O 5.716520 2.093909 2.988046
O 5.726319 2.091499 7.787251
O 0.871724 1.145901 5.835838
O 2.854493 3.414031 3.188353
O 2.854804 1.185897 3.190446
O 1.831437 -0.131405 0.970668
O 3.903741 2.228327 5.914982
O 3.051097 0.914656 8.006785
O 3.056175 -1.362434 8.006275
O 3.889475 -0.282173 5.813217
O 4.767084 0.977649 1.017453
O 5.585507 -0.408652 7.893063
O 4.769476 -1.666761 1.021145
