11

Li 0.999367 4.142316 2.849643
Li 1.862223 1.059003 1.257367
Fe 0.978380 4.008933 -0.112079
Fe 1.883209 1.192386 4.219088
Co 0.000000 0.000000 2.832118
O 1.419426 5.841743 0.076851
O 2.440384 3.372976 1.196377
O 0.510313 2.078157 -0.160272
O 2.351277 3.123162 4.267282
O 0.421206 1.828343 2.910633
O 1.442164 -0.640424 4.030159
