20

Li 2.424382 2.623935 3.113627
Li 4.536352 0.874645 0.649695
Li 9.385117 2.623935 4.278170
Li 11.497087 0.874645 1.814238
V 1.157055 0.874645 0.451067
V 5.803679 2.623935 2.915000
V 8.117790 0.874645 2.012865
V 12.764414 2.623935 4.476798
O 0.852829 2.623935 4.570309
O 1.570077 0.874645 2.064800
O 5.390657 2.623935 4.528732
O 6.107905 0.874645 2.106376
O 7.813564 2.623935 2.821488
O 8.530812 0.874645 0.399132
O 12.351392 2.623935 2.863065
O 13.068640 0.874645 0.357556
F 2.909504 0.874645 4.465626
F 4.051231 2.623935 2.001694
F 9.870238 0.874645 2.926171
F 11.011966 2.623935 0.462239
