40

Li 0.243061 0.177757 0.161980
Li 6.435170 4.141421 6.101869
Li 4.105195 5.805035 6.787637
Li 2.602482 7.608779 7.983458
Li 5.607925 4.869423 9.536569
Li 7.167365 8.322190 7.243876
Nb 7.373322 9.938310 11.828361
Cr 1.226734 1.699037 1.961049
Cr 3.095174 4.195474 4.947496
Cr 5.623119 7.576284 9.066196
P 0.481002 5.931905 5.210155
P 3.790671 2.225983 7.413602
P 6.460525 6.347177 4.595457
P 2.178034 5.124233 9.362064
P 4.629561 9.520568 6.374491
P 8.272617 5.788436 8.502683
O 1.126929 2.718165 4.842358
O 2.526426 5.095991 3.371091
O 0.567090 7.240337 4.352348
O 4.567922 3.056581 4.668205
O 2.079049 5.475102 5.546263
O 0.089938 6.191679 6.375903
O 2.187945 1.673498 7.850680
O 3.877725 3.632373 6.670748
O 5.122097 5.664081 5.320267
O 1.650733 3.705815 8.954313
O 0.830421 5.986778 8.905556
O 3.241459 1.646213 2.997016
O 5.239678 2.526271 8.435558
O 7.807447 5.541140 5.025697
O 6.997356 7.868436 4.883436
O 3.608722 5.933212 8.749867
O 4.720336 8.138438 7.113518
O 6.311977 10.030831 5.943750
O 8.400928 5.418670 7.332137
O 6.685784 6.293858 8.309285
O 4.018106 8.754328 9.135340
O 8.016598 4.471011 9.407868
O 5.973142 6.230435 10.615613
O 7.719391 8.919292 8.827080
