80

Li 0.990765 5.577476 1.336106
Li 0.990765 8.192211 6.069503
Li 1.047103 1.025869 7.949590
Li 1.047103 3.564026 3.216192
Li 1.140915 7.817042 3.600658
Li 1.140915 5.952645 8.334056
Li 1.372719 8.004778 1.079574
Li 1.372719 5.764909 5.812972
Li 1.470902 1.060771 3.728942
Li 1.470902 3.529125 8.462340
Li 3.092355 8.119020 8.462340
Li 3.092355 5.650666 3.728942
Li 3.190539 3.414882 1.079574
Li 3.190539 1.175013 5.812972
Li 3.422343 3.227146 3.600658
Li 3.422343 1.362749 8.334056
Li 3.516154 8.153922 3.216192
Li 3.516154 5.615765 7.949590
Li 3.572492 0.987580 1.336106
Li 3.572492 3.602315 6.069503
Li 5.554023 5.577476 3.397292
Li 5.554023 8.192211 8.130690
Li 5.610361 1.025869 6.250603
Li 5.610361 3.564026 1.517205
Li 5.704172 5.952645 5.866138
Li 5.704172 7.817042 1.132740
Li 5.935977 5.764909 8.387221
Li 5.935977 8.004778 3.653823
Li 6.034160 1.060771 1.004455
Li 6.034160 3.529125 5.737853
Li 7.655613 5.650666 1.004455
Li 7.655613 8.119020 5.737853
Li 7.753796 3.414882 3.653823
Li 7.753796 1.175013 8.387221
Li 7.985601 1.362749 5.866138
Li 7.985601 3.227146 1.132740
Li 8.079412 5.615765 6.250603
Li 8.079412 8.153922 1.517205
Li 8.135750 0.987580 3.397292
Li 8.135750 3.602315 8.130690
Cr 0.988110 1.355717 1.129076
Cr 0.988110 3.234178 5.862474
Cr 3.575148 5.945613 1.129076
Cr 3.575148 7.824073 5.862474
Cr 5.551367 1.355717 3.604321
Cr 5.551367 3.234178 8.337719
Cr 8.138406 5.945613 3.604321
Cr 8.138406 7.824073 8.337719
O 0.041644 2.289082 4.510474
O 0.041644 2.300814 9.243871
O 0.368483 0.020609 2.397778
O 0.368483 4.569287 7.131176
O 2.153146 0.322817 0.001543
O 2.153146 4.267079 4.734941
O 2.241281 2.209172 2.317301
O 2.241281 2.380724 7.050699
O 2.321977 6.799067 2.317301
O 2.321977 6.970619 7.050699
O 2.410112 4.912712 0.001543
O 2.410112 8.856974 4.734941
O 4.194775 4.610504 2.397778
O 4.194775 9.159182 7.131176
O 4.521613 6.878977 4.510474
O 4.521613 6.890709 9.243871
O 4.604902 2.289082 0.222924
O 4.604902 2.300814 4.956322
O 4.931741 0.020609 2.335619
O 4.931741 4.569287 7.069017
O 6.716403 0.322817 4.731855
O 6.716403 4.267079 9.465252
O 6.804538 2.209172 2.416097
O 6.804538 2.380724 7.149494
O 6.885235 6.799067 2.416097
O 6.885235 6.970619 7.149494
O 6.973370 4.912712 4.731855
O 6.973370 8.856974 9.465252
O 8.758032 4.610504 2.335619
O 8.758032 9.159182 7.069017
O 9.084871 6.878977 0.222924
O 9.084871 6.890709 4.956322
