59

Li 7.279867 1.032489 1.037425
Li 2.010028 2.117099 6.236228
Li 7.344666 3.089139 3.136039
Li 5.235624 3.097553 1.010632
Li 7.272979 5.180461 5.250537
Li 1.096973 5.257818 3.193513
Li 5.148595 5.248027 7.245940
Li 3.154551 5.315395 1.039061
Li 7.249042 7.394849 7.339088
Li 1.046733 7.409295 1.119223
Li 4.146871 8.388016 4.112345
V 3.118303 0.990376 1.075019
V 5.184301 1.039414 7.272103
V 7.320903 1.091121 5.207431
V 1.081581 3.082171 0.972325
V 3.121543 3.053424 3.236085
V 5.216950 3.062585 5.232899
V 7.257937 5.242827 1.025065
V 1.077159 5.223694 7.233499
V 5.134903 5.281780 3.173055
V 3.140342 7.438148 7.318503
V 1.144015 7.456298 5.223708
V 7.210945 7.417746 3.185321
Co 1.060159 1.049191 3.145955
Co 7.328782 3.099683 7.286539
Co 3.129714 5.252674 5.227317
Co 5.191506 7.390729 1.098367
O 7.458746 1.061605 3.234433
O 0.971657 0.971629 5.081604
O 3.168060 1.009527 7.404931
O 5.131188 0.949087 0.930334
O 7.175364 1.125168 7.221883
O 5.318221 1.073734 5.256060
O 2.995677 1.122829 3.056583
O 1.145930 1.021387 1.215059
O 7.277235 2.983697 5.305050
O 5.400961 3.110593 7.218790
O 3.123992 2.978581 1.200520
O 1.141641 3.021402 2.986240
O 3.151269 3.198974 5.054039
O 5.129572 3.251858 3.179922
O 7.384686 3.157815 0.930445
O 0.960987 3.277015 7.337245
O 5.225946 5.094703 5.105196
O 3.241871 5.090248 3.073049
O 0.971157 5.224387 0.919368
O 7.368753 5.090691 7.354074
O 5.255497 5.398141 1.133731
O 7.153209 5.275729 3.065847
O 0.976521 5.421224 5.338809
O 3.008495 5.405704 7.323787
O 5.244261 7.228030 3.056867
O 7.166977 7.326757 1.156747
O 1.086437 7.253261 7.230614
O 2.961978 7.307065 5.252197
O 0.895048 7.495358 3.242898
O 7.437841 7.518145 5.225638
O 5.126099 7.385126 7.502384
O 3.210771 7.513693 1.045548
