18

Mn 0.000000 0.000000 0.000000
Mn 3.366233 3.690151 3.423648
C 0.936728 1.953713 3.910352
C 2.429504 5.643864 4.413307
C 4.302961 1.736437 2.433988
C 5.795737 5.426588 2.936943
O 0.735522 1.842832 0.215602
O 0.542805 0.914419 3.296368
O 1.436001 3.005215 3.353373
O 1.930232 6.695365 4.970286
O 2.823428 4.604570 5.027291
O 2.630711 5.532983 3.208045
O 4.101755 1.847319 3.639250
O 3.909038 2.775731 1.820005
O 4.802234 0.684936 1.877009
O 5.296464 4.375087 3.493922
O 6.189660 6.465882 3.550927
O 5.996944 5.537470 1.731682
