15

V 0.212378 5.886738 -0.490689
V 2.716531 0.840954 2.863463
V 4.641148 4.716934 0.890944
O 1.168994 5.795589 0.853980
F 0.265674 4.305182 4.035780
F 1.857929 2.274218 2.361399
F 1.632496 0.521940 4.419466
F 3.361555 4.951146 2.295001
F 3.325424 4.163505 -0.226468
F 4.090409 1.465187 3.872228
F 3.831218 0.679442 1.396763
F 5.831790 4.865668 -0.704181
F 5.229623 3.117222 1.398757
F 6.039120 -0.348530 2.544908
F 7.024981 1.117142 -0.663980
