92

Li 2.799035 8.782213 5.008796
Li 2.820005 8.764937 0.000000
Li 8.418075 4.153233 0.000000
Li 8.439046 4.135958 5.008796
Fe 1.797396 7.610139 7.513194
Fe 3.821644 9.937011 2.504398
Fe 7.416437 2.981159 7.513194
Fe 9.440685 5.308032 2.504398
Si 0.274749 2.716378 9.937822
Si 0.853364 3.389125 4.555791
Si 0.498229 9.244169 3.038506
Si 2.707782 0.712039 9.937822
Si 2.324912 5.080669 9.564587
Si 3.294129 1.378416 4.555791
Si 2.911259 5.747046 4.929026
Si 1.951077 10.914217 6.979086
Si 3.667963 6.632933 1.970290
Si 4.765677 3.069960 9.564587
Si 5.344292 3.742707 4.929026
Si 5.120811 8.302982 8.047302
Si 6.117269 4.615189 1.970290
Si 5.893789 9.175464 5.088566
Si 6.472404 9.848210 0.453006
Si 7.570117 6.285237 8.047302
Si 9.287004 2.003954 3.038506
Si 8.326822 7.171125 5.088566
Si 7.943952 11.539754 5.461802
Si 8.913169 7.837502 0.453006
Si 8.530299 12.206131 0.079770
Si 10.739852 3.674002 6.979086
Si 10.384717 9.529046 5.461802
Si 10.963332 10.201792 0.079770
O 0.488059 0.561023 6.933306
O 11.226438 5.642715 3.241883
O 1.312417 1.508623 0.246503
O 0.073845 8.196825 4.214772
O 1.108378 4.102546 0.043937
O 0.319038 8.509421 1.603516
O 1.957910 2.250617 4.184198
O 1.643929 4.718161 5.052733
O 1.053098 8.426227 9.149448
O 1.752927 5.840981 8.250679
O 1.824671 9.356028 6.625686
O 2.676495 6.052756 0.794024
O 2.056636 9.622672 3.391907
O 3.866113 11.706169 3.241883
O 2.952851 6.339679 3.405280
O 2.747374 7.030479 5.876941
O 3.975111 1.740924 0.043937
O 3.661131 4.208469 9.192994
O 2.871667 10.516671 0.868145
O 2.666190 11.207471 8.414076
O 4.510662 2.356539 5.052733
O 3.562404 7.924479 8.400703
O 2.942545 11.494395 5.802821
O 4.306624 4.950463 5.255299
O 3.794369 8.191123 1.616889
O 5.630683 2.646476 8.250679
O 5.130982 5.898062 1.924510
O 4.565942 9.120923 4.140652
O 5.692886 3.567845 0.794024
O 5.938078 3.880441 3.405280
O 5.300002 9.037730 6.612312
O 5.545195 9.350325 9.223568
O 6.672138 3.797248 5.876941
O 6.107099 7.020109 8.093083
O 5.607398 10.271694 1.766913
O 7.443711 4.727048 8.400703
O 6.931457 7.967708 4.762293
O 8.295535 1.423776 4.214772
O 7.675677 4.993692 1.616889
O 6.727419 10.561631 4.964859
O 8.571891 1.710700 1.603516
O 8.366414 2.401499 9.149448
O 7.576950 8.709702 0.824598
O 7.262969 11.177247 9.973655
O 8.490707 5.887692 4.140652
O 8.285230 6.578492 6.612312
O 7.371967 1.212002 6.775709
O 9.181445 3.295499 6.625686
O 8.561586 6.865415 9.223568
O 9.413410 3.562143 3.391907
O 9.485154 7.077189 1.766913
O 10.184983 4.491943 0.868145
O 9.594152 8.200009 4.964859
O 9.280171 10.667554 5.833394
O 10.919043 4.408750 8.414076
O 10.129703 8.815625 9.973655
O 11.164235 4.721346 5.802821
O 9.925664 11.409548 9.771089
O 0.011643 7.275456 6.775709
O 10.750022 12.357147 3.084286
