92

Li 2.774270 8.752640 0.000000
Li 2.811606 8.722388 4.999789
Li 8.360147 4.226628 4.999789
Li 8.397483 4.196376 0.000000
V 1.749240 7.527778 2.499895
V 3.836637 9.947250 7.499684
V 7.335116 3.001766 2.499895
V 9.422513 5.421238 7.499684
Si 0.272066 2.694287 4.906563
Si 0.852528 3.362252 9.554837
Si 0.512370 9.160514 8.031252
Si 2.688035 0.736723 4.906563
Si 2.322295 5.065837 4.555048
Si 3.263582 1.408671 9.554837
Si 2.897841 5.737785 9.906353
Si 1.959403 10.837748 1.968327
Si 3.626474 6.637280 6.968116
Si 4.733349 3.112256 4.555048
Si 5.313811 3.780221 9.906353
Si 5.073518 8.314516 3.031462
Si 6.098247 4.634501 6.968116
Si 5.857942 9.168794 0.093226
Si 6.438404 9.836759 5.444531
Si 7.545279 6.311747 3.031462
Si 9.212350 2.111268 8.031252
Si 8.273912 7.211231 0.093226
Si 7.908171 11.540345 0.444741
Si 8.849458 7.883178 5.444531
Si 8.483717 12.212292 5.093015
Si 10.659383 3.788502 1.968327
Si 10.319225 9.586764 0.444741
Si 10.899687 10.254729 5.093015
O 11.079463 5.677603 8.261112
O 0.482050 0.558737 1.910619
O 1.224581 1.419393 5.219880
O 0.100870 8.118618 9.211662
O 0.350324 8.410913 6.601692
O 1.151986 4.042908 5.044077
O 1.900617 2.202977 9.108306
O 1.782375 5.902004 3.261323
O 1.028069 8.303137 4.086208
O 1.684086 4.659656 0.044288
O 1.837206 9.269685 1.686359
O 2.641248 6.060251 5.787706
O 2.083197 9.554809 8.313220
O 2.893909 6.349949 8.397676
O 2.664407 6.977278 0.913582
O 3.901791 1.814851 5.044077
O 3.803501 11.573023 8.261112
O 3.685260 4.271531 4.108517
O 2.921469 10.497749 5.913371
O 4.433890 2.431600 0.044288
O 2.691968 11.125079 3.397887
O 3.502680 7.920218 3.313430
O 2.944628 11.414777 0.787917
O 3.748671 8.205343 6.686148
O 4.361296 5.055114 0.220091
O 5.103827 5.915771 6.910409
O 5.678166 2.745400 3.261323
O 4.557807 9.171890 9.085997
O 5.686746 3.592606 5.787706
O 5.936200 3.884901 8.397676
O 5.235553 9.064114 1.601903
O 5.485007 9.356410 4.211873
O 6.613946 3.777125 0.913582
O 5.493587 10.203615 6.738256
O 6.067926 7.033245 3.089170
O 6.810457 7.893901 9.779488
O 7.423082 4.743673 3.313430
O 8.227125 1.534239 9.211662
O 7.669073 5.028797 6.686148
O 8.479785 1.823936 6.601692
O 6.737863 10.517415 9.955291
O 8.250284 2.451266 4.086208
O 7.486493 8.677485 5.891062
O 7.368251 1.375992 1.738467
O 7.269962 11.134164 4.955501
O 8.507346 5.971737 9.085997
O 8.277844 6.599067 1.601903
O 9.088556 3.394206 1.686359
O 8.530505 6.888765 4.211873
O 9.334547 3.679330 8.313220
O 9.487667 8.289359 9.955291
O 10.143684 4.645878 5.913371
O 9.389378 7.047011 6.738256
O 9.271136 10.746038 0.891272
O 10.019766 8.906108 4.955501
O 10.821429 4.538102 3.397887
O 11.070883 4.830398 0.787917
O 9.947172 11.529622 4.779699
O 10.689703 12.390278 8.088959
O 0.092290 7.271412 1.738467
