26

Li 0.713884 2.847421 2.953292
Li 3.069125 6.758917 4.404634
Li 4.496894 1.064076 0.261007
Li 6.852135 4.975572 1.712348
Mn 0.000000 0.000000 2.512553
Mn 3.783009 3.911497 -0.179732
P 1.508997 1.477889 0.116291
P 2.274012 5.389385 2.216529
P 5.292006 2.433608 2.449111
P 6.057022 6.345105 4.549350
O 0.402406 1.103034 4.062333
O 0.753409 1.510362 1.470164
O 1.120679 4.439877 2.143999
O 1.845186 6.844000 2.624710
O 1.937824 2.932504 4.733215
O 2.662331 0.528381 0.188822
O 3.029600 5.421858 0.862656
O 3.380603 5.014531 3.295593
O 4.185416 2.808462 1.370047
O 4.536411 2.401135 3.802985
O 4.903688 7.294613 4.476819
O 5.628195 4.890489 -0.067575
O 5.720833 0.978993 2.040930
O 6.445340 3.383116 2.521642
O 6.812617 6.312631 3.195476
O 7.163613 6.719959 0.603308
