12

Mn 2.861231 1.376111 3.748717
Mn 2.861231 3.884689 2.190792
Mn 0.000000 2.508578 3.187287
Co 2.861231 3.884689 4.563398
O 1.506358 2.045180 2.402501
O 4.035584 3.282664 3.645681
O 1.530370 4.274221 3.154109
O 1.530370 2.077780 4.518185
O 4.192093 5.691598 4.608611
O 4.192093 3.495157 5.972687
O 1.686879 4.486714 5.481114
O 4.216105 5.724198 6.724294
