17

Sr 5.695314 7.520875 -6.608095
Sr 7.937552 10.485658 -9.211605
Li 10.207117 10.704279 -9.028850
Li 3.402518 7.290600 -3.919711
Nb 0.190597 5.679268 -2.934932
Nb 2.139244 2.832435 -2.485839
Nb 11.460606 15.157535 -13.309071
O 1.115342 1.410272 -1.262807
O 8.847776 8.900206 -7.445182
O 3.121719 4.122236 -3.621978
O 11.582776 12.516538 -10.624773
O 10.500722 13.879067 -12.189895
O 12.651017 16.663230 -14.657123
O 6.991767 11.841046 -8.011027
O 2.033827 5.474164 -2.329111
O 0.289549 2.979090 -0.186003
O 4.787526 9.115221 -5.522565
