56

Li 0.013333 2.008457 13.298154
Li 0.013411 1.722870 5.915324
Li 2.138078 7.056496 13.370482
Li 2.138208 4.138010 5.988586
Li 4.352993 3.325491 7.549534
Li 4.353122 0.407005 0.167639
Li 6.477790 5.740631 7.622797
Li 6.477868 5.455043 0.239967
V 1.163301 2.301855 9.053345
V 1.163106 1.430212 1.671313
V 3.209412 2.787633 11.865028
V 3.281847 6.518750 9.055232
V 3.209353 0.944751 4.482889
V 3.281789 4.675868 1.673093
V 5.328094 6.033288 11.866807
V 5.327899 5.161645 4.484775
F 0.107540 7.443110 13.216509
F 0.220552 1.486153 10.409512
F 0.107514 3.750830 5.834479
F 0.389245 1.432512 7.717682
F 0.220766 2.244707 3.025782
F 0.389362 2.298916 0.334244
F 1.813044 3.455732 12.960056
F 2.048415 3.297668 10.374585
F 2.044507 6.211467 10.451007
F 2.369898 1.131033 12.074486
F 2.040256 5.996155 7.906687
F 1.813155 0.276293 5.577973
F 2.347251 3.131403 7.680139
F 2.572489 0.948643 9.031484
F 2.048389 0.434286 2.992169
F 2.044345 4.982939 3.068397
F 2.369814 2.600932 4.690969
F 2.040165 5.198496 0.523901
F 2.347582 0.600123 0.297468
F 2.572443 2.783234 1.647599
F 3.918757 4.680266 11.890522
F 4.143619 6.863377 13.240652
F 4.451036 2.265004 13.014219
F 4.121387 4.862568 8.847152
F 4.446855 2.480562 10.469723
F 4.442811 7.029215 10.545951
F 3.918712 6.514857 4.506636
F 4.143956 4.332097 5.857980
F 4.678046 7.187208 7.960148
F 4.450945 1.467346 5.631433
F 4.121302 6.332468 1.463634
F 4.446693 1.252033 3.087113
F 4.442785 4.165833 3.163535
F 4.678156 4.007768 0.578065
F 6.101839 5.164585 13.203876
F 6.270435 5.218793 10.512338
F 6.101956 6.030989 5.820438
F 6.383687 3.712670 7.703641
F 6.270649 5.977348 3.128609
F 6.383661 0.020391 0.321611
