44

Li 0.005944 4.282261 2.350578
Li 4.672567 7.044558 -0.792207
Mg 4.152974 3.545614 1.325768
Co 1.231585 7.162967 2.707241
Co 0.562634 7.844421 0.222243
Co 0.005541 0.009387 -0.000121
Co 1.687103 6.359794 -1.711172
Co 2.331990 5.687400 0.772926
Co 2.979849 4.991611 3.277839
Co 3.465005 4.189204 -1.172879
Co 4.723676 2.789287 3.838126
Co 5.232492 2.018167 -0.607617
Co 5.885266 1.338264 1.900309
Co 6.499553 0.628140 4.375569
Co 7.714845 -0.780839 2.433424
Co 7.045145 -0.108831 -0.051645
O 0.076614 1.594445 5.882615
O 1.797537 7.974224 4.188299
O 0.540998 6.264710 1.294069
O 1.114664 5.550935 3.707784
O 1.244774 0.163197 3.908786
O 0.613166 0.855957 1.459456
O 2.363225 7.254072 -0.298294
O 2.997122 6.591741 2.217793
O 2.190626 4.206482 1.870752
O 1.647660 4.809481 -0.679196
O 2.899119 3.367226 4.302163
O 3.520362 5.844705 -2.158509
O 4.740438 4.425527 2.913804
O 4.085235 5.226231 0.177736
O 4.171662 1.842332 2.449433
O 3.476103 2.590206 -0.226536
O 4.704288 1.173559 4.851091
O 5.295069 3.626252 -1.623854
O 6.551732 2.194380 3.352531
O 6.064230 2.812896 0.781486
O 5.239564 0.380560 0.470373
O 5.893705 -0.264990 2.915321
O 7.647501 6.200788 1.191750
O 6.991237 6.891754 -1.254879
O 7.101020 1.469310 -1.064824
O 7.716879 0.788892 1.360763
O 6.441783 -0.961194 -1.511180
O 8.149625 5.448323 -3.206683
