26

V 0.042796 0.342888 15.552813
V 0.027708 0.200430 4.559045
V 0.068964 2.926662 2.153605
V 0.042796 5.536730 7.764409
V 0.027708 5.679187 12.347449
V 0.068964 2.952955 9.942009
F 0.028379 4.538676 0.980222
F 0.028379 1.340941 8.768626
F 0.110229 4.508255 3.388683
F 0.100202 2.153663 3.908499
F 0.122411 1.096607 6.307675
F 0.110229 1.371362 11.177088
F 0.100202 3.725954 11.696903
F 0.122411 4.783010 14.096080
F 0.215748 2.329828 0.285137
F 0.215748 3.549789 8.073541
F 2.022298 0.248167 4.515829
F 2.051328 2.950092 2.240836
F 2.017632 5.554374 7.845636
F 2.022298 5.631450 12.304234
F 2.051328 2.929525 10.029241
F 2.017632 0.325243 15.634041
F 3.846418 0.890250 2.133518
F 3.846418 4.989367 9.921923
F 3.905699 4.661549 6.122819
F 3.905699 1.218068 13.911223
