15

Li -0.000432 2.972815 3.452740
Li 5.264682 4.349486 8.309873
Li 5.263198 7.321621 10.448501
Fe 0.002148 2.975184 2.143016
Fe 5.260766 4.345733 6.992205
Fe 5.265693 7.323147 9.138256
Te -0.001211 -0.001202 -0.001140
O 10.507078 8.806174 14.711922
O -0.002948 3.313387 2.961984
O 5.645926 4.566529 8.075502
O 0.020002 -0.109447 1.905054
O 4.864437 6.678722 9.216198
O 0.003074 2.633418 3.944881
O 4.880302 4.130321 8.540770
O 5.664865 7.968723 11.684891
