28

Li 1.875248 2.365399 8.262003
Li 5.760320 -2.809943 9.137816
Li 0.043949 -0.004562 4.685624
Li 3.860588 -0.220044 3.520588
Fe 1.999053 2.361757 4.468060
Fe 3.836799 -0.223749 9.082565
Co 0.958555 3.644072 1.862768
Co 0.958353 1.199612 1.926083
Co 1.967233 -0.114914 6.608313
Ni 3.808615 2.257355 1.754711
Ni 4.807992 0.941369 6.448864
Ni 4.808159 -1.499571 6.508806
O 1.066068 3.706833 5.509483
O 0.219322 2.464989 3.024468
O 1.855685 2.369742 0.863909
O 0.032311 -0.001894 2.909219
O 0.055031 -0.004795 7.584720
O 1.068508 1.122536 5.575560
O 2.732187 3.438233 2.895628
O 2.737425 1.205640 2.949669
O 1.826403 -0.106761 0.937065
O 3.972686 2.246494 5.381145
O 2.888841 0.915780 7.720692
O 2.890459 -1.253531 7.769414
O 3.830856 -0.220830 5.563129
O 4.878939 0.970952 0.700557
O 5.544004 -0.323700 7.581518
O 4.872273 -1.538796 0.765330
