72

Li 0.861137 4.712246 2.392533
Li 7.636868 10.442758 2.843617
Li 9.359141 1.018266 7.628683
Li 16.134872 6.748778 8.079767
Cr 1.740697 8.911565 1.128174
Cr 3.597800 3.041492 5.826526
Cr 4.900204 8.772004 9.326183
Cr 6.757307 3.181053 4.107976
Cr 10.238702 8.279971 6.364324
Cr 12.095805 2.689020 1.146117
Cr 13.398209 8.419532 4.645774
Cr 15.255312 2.549459 9.344126
P 0.905649 2.757408 7.212881
P 2.198638 7.868326 8.066760
P 4.407218 9.920433 2.331414
P 4.090786 4.189921 2.904736
P 6.299367 2.137813 7.085948
P 7.592355 8.487920 7.939828
P 9.403654 2.973104 2.532472
P 10.696642 9.323211 3.386351
P 12.905223 7.271103 7.567564
P 12.588791 1.540591 8.140886
P 14.797371 3.592699 2.405540
P 16.090360 8.703616 3.259419
S 0.846469 7.623335 2.908498
S 0.370003 1.469212 8.723012
S 1.095869 7.099119 9.642956
S 1.611511 1.785307 5.547042
S 1.279460 7.806482 6.355838
S 2.507710 10.758899 2.260130
S 2.438927 4.059655 7.597542
S 3.014140 4.950612 4.502709
S 2.695941 9.750283 8.888285
S 3.176418 4.265553 1.190847
S 3.942462 8.005457 1.559703
S 4.064902 6.969575 8.189019
S 4.433120 1.239063 6.963690
S 4.555542 2.274945 3.676447
S 5.321586 9.996065 4.045303
S 5.483864 10.681124 0.733441
S 5.802064 4.019771 6.264423
S 5.990294 5.028387 2.976020
S 6.059077 9.790167 7.555167
S 7.218545 2.075970 8.796871
S 6.886494 7.515819 9.605666
S 7.402136 1.368607 5.509753
S 7.651535 1.892823 2.327652
S 8.128001 7.199724 6.429697
S 8.868008 4.261301 4.042603
S 9.344474 9.568202 8.144648
S 9.593873 10.092418 4.962547
S 10.109515 3.945205 0.866634
S 9.777464 9.385055 1.675429
S 10.936932 1.670857 2.917133
S 11.005715 6.432637 7.496280
S 11.193946 7.441253 4.207877
S 11.512145 0.779900 9.738859
S 11.674423 1.464960 6.426997
S 12.440467 9.186080 6.795853
S 12.562889 10.221961 3.508609
S 12.931125 4.491449 2.283282
S 13.053547 3.455568 8.912597
S 13.819591 7.195472 9.281453
S 14.300068 1.710741 1.584014
S 13.981869 6.510412 5.969590
S 14.557082 7.401369 2.874758
S 14.488299 0.702125 8.212169
S 15.716550 3.654542 4.116462
S 15.384499 9.675718 4.925257
S 15.900140 4.361894 0.829344
S 16.626006 9.991813 1.749288
S 16.149540 3.837690 7.563802
