26

Li 3.686675 0.030382 3.847171
Li 8.809831 3.285679 3.937098
Co 1.718788 0.109158 1.316981
Co 3.353362 3.351895 3.900618
Co 6.841945 3.206903 1.406908
Co 8.476518 6.596289 3.990545
P 0.973144 5.099068 3.890719
P 4.149162 1.793445 1.306961
P 6.096300 4.849116 3.980645
P 9.272319 1.522616 1.396887
O 0.556385 1.542685 0.976902
O 1.160569 5.286239 0.296288
O 1.551056 3.746566 3.460307
O 1.753738 6.266679 3.175016
O 3.512149 3.015580 0.654976
O 3.542652 0.488356 0.702077
O 3.819057 1.789837 2.833794
O 4.591721 4.840083 3.622943
O 5.679541 1.773376 1.066829
O 6.283726 4.661944 0.386215
O 6.674213 6.201618 3.550233
O 6.876895 3.681504 3.264943
O 8.635306 0.300482 0.744903
O 8.665809 2.827705 0.792004
O 8.942213 1.526224 2.923720
O 9.714878 5.108100 3.712869
