15

Li 0.000006 5.142480 4.121068
Li 0.000006 2.571251 5.702339
Li 2.951276 3.693762 5.100211
V 2.951270 1.122542 1.825771
Cr -0.000112 2.571253 3.274465
Cr 2.951341 -1.448655 0.979111
Cr 2.951341 1.122445 -0.602081
O 1.522859 3.068191 4.111779
O 1.577180 0.679797 3.262816
O 1.577180 2.994200 1.839489
O 4.233664 1.690187 2.720831
O 1.668918 0.554877 0.930691
O 4.325361 -0.749116 1.812019
O 4.325361 1.565250 0.388715
O 4.379765 -0.823220 -0.460368
