68

Mn 2.169704 10.339528 0.260007
Mn 2.109403 7.102758 4.558642
Mn 2.148342 4.418179 8.324186
Mn 2.130764 1.255662 4.025551
Mn 6.427449 10.092020 4.571719
Mn 6.409870 6.929503 0.273084
Mn 6.448810 4.244924 4.038628
Mn 6.388509 1.008154 8.337263
S 0.404778 5.763513 2.112014
S 0.962166 9.959321 3.243879
S 1.017255 1.653246 1.007935
S 3.316941 7.482964 7.542514
S 3.261851 4.020595 5.306570
S 3.874329 -0.089672 6.410649
S 4.683884 11.437354 2.186621
S 5.296361 7.327086 3.290700
S 5.241272 3.864718 1.054756
S 7.540958 9.694436 7.589335
S 7.596047 1.388360 5.353391
S 8.153435 5.584169 6.485256
O 0.371076 5.239897 7.460608
O 0.373575 10.564231 7.584821
O 0.378744 7.050954 5.825080
O 0.403871 2.182243 5.007875
O 0.908463 6.785611 3.083703
O 1.073012 9.755726 1.748891
O 1.147203 11.401944 3.536263
O 1.091891 2.813993 0.071056
O 1.438387 2.135571 2.361661
O 1.628893 5.135396 1.498306
O 1.979788 9.154403 3.971569
O 2.299318 8.287882 8.270204
O 1.970683 0.601498 0.551085
O 2.308424 5.072343 4.849720
O 2.650213 0.538445 5.796941
O 2.840719 3.538270 6.660296
O 3.131904 6.040341 7.834898
O 3.187215 2.859848 4.369691
O 3.206095 7.686559 6.047526
O 3.370643 10.656674 7.382338
O 3.900363 10.391331 1.526445
O 3.905532 6.878055 3.286186
O 3.875236 3.491597 0.709240
O 3.908031 0.433944 3.161973
O 4.650182 10.913738 5.435297
O 4.682977 7.856084 7.888030
O 4.652681 4.469627 5.311084
O 4.657850 0.956351 7.070825
O 5.187569 0.691008 1.214932
O 5.352118 3.661123 2.549744
O 5.370997 8.487834 4.227579
O 5.426309 5.307340 0.762372
O 5.717494 7.809412 1.936974
O 5.907999 10.809237 2.800329
O 6.249789 6.275339 3.747550
O 6.587530 10.746183 8.046185
O 6.258895 3.059800 0.327066
O 6.578424 2.193278 4.625701
O 6.929319 6.212286 7.098963
O 7.119825 9.212111 6.235608
O 7.466322 8.533689 8.526213
O 7.411010 -0.054262 5.061006
O 7.485201 1.591955 6.848379
O 7.649750 4.562070 5.513567
O 8.154342 9.165438 3.589395
O 8.179469 4.296727 2.772190
O 8.184638 0.783451 1.012449
O 8.187137 6.107785 1.136662
