33

V 3.154178 4.375767 5.139500
V 5.729953 7.949120 9.336536
V 7.577680 10.512457 12.347271
S 0.314185 5.680006 5.386525
S 4.179880 2.586479 7.560197
S 6.625129 7.159087 5.171184
S 2.279010 5.182081 9.299164
S 4.710449 9.721875 6.927672
S 8.545900 6.648130 9.086887
O 1.048049 2.760442 4.888903
O 2.620318 5.234836 3.621278
O 0.076468 6.963604 4.802362
O 4.545429 3.399657 4.873594
O 0.186629 5.391690 6.544175
O 2.018439 5.527529 5.469838
O 3.572460 3.664718 6.700610
O 2.945397 1.702162 8.125101
O 5.300626 5.917482 5.576489
O 0.527253 5.307131 8.809494
O 2.570128 4.022975 9.027315
O 3.120644 8.878558 6.283843
O 5.863146 3.416942 8.255774
O 6.363561 8.412295 5.426669
O 8.329000 7.081201 5.567933
O 3.534924 6.569111 8.911981
O 6.033751 10.556387 6.339552
O 5.538797 8.756541 7.853364
O 6.829606 6.736913 9.147954
O 8.595414 6.917583 7.967129
O 4.592978 9.100645 9.544424
O 8.664216 5.258313 9.659328
O 5.991129 7.149640 10.810296
O 7.876943 9.360588 9.726200
