24

V 9.366762 0.623498 0.014820
V 4.746458 3.789641 3.126121
V 4.662305 2.542432 0.014932
V 0.042123 5.708512 3.126083
F 9.249424 2.369171 0.014893
F 0.128205 5.276776 1.208864
F 0.142629 5.278074 5.042459
F 1.749301 6.160981 3.116764
F 1.718421 0.516259 0.021582
F 2.985951 3.682335 3.132806
F 2.955015 2.994941 0.005460
F 4.561819 2.111957 1.931216
F 4.576233 2.110722 4.320155
F 4.863833 5.535306 3.126193
F 4.544996 0.796767 0.014910
F 4.832586 4.221325 1.208866
F 4.847001 4.220109 5.042499
F 6.453814 3.337126 3.116726
F 6.422830 2.649732 0.021556
F 7.690502 5.815751 3.132818
F 7.659528 0.171016 0.005484
F 9.266266 1.053961 1.931175
F 9.280643 1.055265 4.320120
F 0.159405 3.962921 3.126203
