14

Li 2.980558 0.951185 1.488568
Li 2.332344 4.179285 4.468564
V -0.000058 0.000032 0.000286
V 0.103600 2.656600 1.489438
V -0.000090 -0.000108 2.976319
V 5.208829 2.474110 4.467736
O 1.023177 3.515942 5.874066
O 4.289555 1.614910 0.082864
O 1.070015 0.833380 1.488757
O 4.274907 4.409206 1.489798
O 1.022959 3.517591 3.061004
O 4.289895 1.613306 2.896408
O 1.038622 0.721714 4.467269
O 4.242690 4.297695 4.468293
