20

Li 3.156418 3.191064 10.318254
Li 1.292231 1.579100 5.009145
V 3.524015 0.845884 8.506821
V 3.609477 0.919783 3.262367
V 1.335092 3.350901 7.370579
V 1.364616 3.376431 2.124270
F 4.612261 2.187153 9.693070
F 0.031544 2.378137 6.051603
F 4.733856 4.100490 2.781782
F 2.710883 4.261830 6.285220
F 2.133683 2.110887 9.032780
F 2.491182 4.541107 8.610001
F 2.408973 1.821202 6.812960
F 2.512386 2.438352 3.798051
F 2.512485 4.523409 0.886590
F 2.769145 2.132643 1.577616
F 2.117693 0.030098 4.363056
F 0.173100 0.156801 7.877823
F 0.016433 2.401189 3.280644
F 0.269825 2.151046 0.956980
