12

Li 2.609888 3.010366 3.508525
Li 7.886790 6.215992 6.712544
Li 12.992285 9.331111 9.830877
V 0.044081 2.861828 3.854555
V 5.175680 3.158894 3.162486
Fe 10.439538 6.350917 6.350917
O 3.785103 3.042173 3.301120
O 9.011206 6.225005 6.485184
O 1.434658 2.978550 3.715921
O 14.112207 9.348796 9.616184
O 6.766853 6.198298 6.927228
O 11.867854 9.322089 10.058228
