69

Li 2.015760 1.219416 8.031248
Li 0.331472 7.309991 4.458097
Li 3.578392 3.776961 3.949807
Li 2.415449 4.461011 11.802799
Li 3.893876 6.406740 7.756812
Li 6.586022 7.764011 6.354138
Li 8.367001 4.827704 13.753816
Li 6.714998 10.661286 10.116480
Li 7.873231 9.501748 12.712749
Mn 0.751969 2.161913 2.371606
Mn 0.812956 5.034563 6.026731
Mn 2.551910 1.757687 10.664210
Mn 3.503873 6.456229 4.648522
Mn 2.217191 6.623351 9.636485
Mn 4.988858 3.453848 9.241191
Mn 3.644008 9.290371 8.329898
Mn 7.228003 5.704214 8.148142
Mn 5.556584 6.387530 13.118869
Mn 6.495696 10.471943 6.995379
Mn 8.073453 7.070210 11.433995
Mn 8.305450 10.175575 15.253191
B 0.601439 4.887873 3.081994
B 2.117226 4.090993 8.574772
B 0.900398 7.718900 6.912785
B 4.045052 4.220718 6.514325
B 3.648074 8.962769 5.524495
B 6.782724 5.361022 5.128185
B 2.279697 7.074806 12.323441
B 5.441412 3.672903 11.998127
B 8.255268 4.443373 10.728041
B 6.784125 8.263293 8.839081
B 5.124901 8.497145 11.147820
B 8.630984 7.551808 14.388734
O 0.522936 1.046830 4.042202
O 1.540069 4.034455 2.939257
O 1.011304 5.739045 4.042857
O 4.035876 2.087449 3.580858
O 0.616844 4.153452 7.884395
O 9.091860 11.297733 10.488782
O 3.619035 3.283997 5.682483
O 0.954455 2.937928 10.881222
O 2.695619 2.918864 8.696142
O 3.323004 5.308306 6.335324
O 2.168318 8.804255 4.693447
O 5.366320 5.542538 4.292871
O 3.135032 5.134492 9.105836
O 2.250277 7.521943 7.788686
O 5.283434 4.158227 7.556399
O 1.720702 6.111257 11.466694
O 4.637342 8.128011 5.497276
O 7.541832 4.387262 4.942095
O 4.821940 2.887981 10.961515
O 1.517915 8.094441 12.311817
O 7.354042 6.183421 6.105508
O 4.705432 4.603980 12.252400
O 3.700630 8.347257 10.280906
O 6.107175 7.271554 8.048953
O 6.959437 4.586383 9.791663
O 3.634478 7.004097 13.221881
O 6.841674 11.312373 15.551036
O 5.800477 7.404449 11.617145
O 6.215435 9.425247 8.679163
O 8.232095 9.477066 6.533895
O 8.055801 8.118394 9.775621
O 9.068542 5.478609 11.363542
O 5.919740 9.679207 11.529278
O 7.912228 6.543430 13.567067
O 7.850049 8.565169 14.336629
O 8.690034 11.110894 13.693170
