30

Li 0.060442 4.187100 0.886272
Li 0.060442 3.479466 6.260140
Li 5.201173 1.616960 2.003568
Li 5.201173 0.938566 7.377437
Li 0.040476 1.605660 4.443463
Li 0.040476 0.949862 9.817332
Fe 3.251436 1.532025 4.366959
Fe 3.328746 4.156730 1.078287
Fe 3.251436 1.023497 9.740827
Fe 3.328746 3.509835 6.452156
Si 1.587196 1.649359 1.768874
Si 1.587196 0.906162 7.142742
Si 5.036197 4.165081 3.774609
Si 5.036197 3.501484 9.148478
O 0.250074 1.076887 1.054208
O 0.250074 1.478635 6.428076
O 1.744543 3.270209 1.468152
O 1.631572 1.324052 3.363207
O 1.744543 4.396356 6.842021
O 1.631572 1.231470 8.737075
O 3.020157 0.976552 1.108613
O 3.020157 1.578970 6.482481
O 3.644719 3.634187 4.563609
O 3.644719 4.032378 9.937477
O 4.857718 3.669310 2.160559
O 4.955642 0.717253 3.771350
O 4.857718 3.997255 7.534428
O 4.955642 1.838269 9.145218
O 6.293619 3.529723 4.501530
O 6.293619 4.136843 9.875398
