15

Li 0.000000 2.828121 3.318064
Li 5.237919 4.408801 8.285502
Li 5.237919 7.236922 10.345824
Ti 0.000000 2.828121 2.060323
Ti 5.237919 4.408801 7.027761
Ti 5.237919 7.236922 9.088083
Cr 0.000000 0.000000 0.000000
O 10.475838 14.473844 18.816840
O 10.475838 11.676143 16.782617
O 5.294258 10.112464 11.868609
O 0.000000 0.000000 1.874809
O 5.181580 7.159082 9.661996
O 0.000000 2.797702 3.909032
O 5.181580 4.361380 8.823040
O 5.294258 7.314762 11.029653
