56

Li 0.010512 0.001312 0.033260
Li 2.145517 2.085506 2.174550
Li 2.209380 6.263320 6.546673
Li 4.344341 8.346278 4.405053
Li 4.365016 4.171565 8.709309
Li 6.498680 2.091067 6.569390
Li 6.564050 6.259941 2.197177
Li 8.699429 4.177298 4.339205
Mn 1.070172 1.112510 5.450190
Mn 1.098276 3.199768 7.632754
Mn 1.119900 5.216403 1.063968
Mn 3.236067 3.133366 5.436063
Mn 3.256682 5.148148 3.261125
Mn 3.285691 7.234763 1.077970
Mn 5.423640 3.061995 3.293581
Mn 5.454296 0.973227 1.110614
Mn 5.472471 7.305854 7.680098
Mn 7.590720 1.043234 3.308517
Mn 7.610637 7.376137 5.482441
Mn 7.637296 5.286925 7.664432
Sn 1.092380 7.304321 3.284629
Sn 3.263945 1.043094 7.652959
Sn 5.443679 5.215775 5.460199
Sn 7.614992 3.134264 1.088595
O 0.844469 1.019325 3.305864
O 1.050376 7.507898 5.378328
O 1.000578 5.138427 7.828662
O 1.169576 1.252223 7.615363
O 1.031478 3.281256 0.960527
O 1.262414 3.052964 5.545769
O 1.124411 5.238876 3.031134
O 1.226847 7.153473 1.153726
O 3.127222 1.194217 5.524376
O 3.233455 3.108147 7.402362
O 3.092038 5.296262 1.171706
O 3.322670 5.066910 5.335404
O 3.185921 7.096478 3.243647
O 3.353683 3.210532 3.457496
O 3.306009 0.840043 1.006113
O 3.510018 7.329158 7.677574
O 5.198137 3.157276 5.440905
O 5.402686 5.015032 3.365426
O 5.357512 7.384055 0.914981
O 5.524560 2.922596 1.124671
O 5.385764 0.892127 7.781715
O 5.616597 1.123183 3.197514
O 5.475389 7.282698 5.712836
O 5.582431 5.368307 7.591281
O 7.479715 2.982292 3.218818
O 7.587123 1.067767 1.341554
O 7.446220 7.226456 7.569112
O 7.678463 7.456660 3.411132
O 7.538327 5.426376 5.498094
O 7.707534 0.965325 5.287193
O 7.657457 3.335800 7.736917
O 7.865376 5.193615 1.068893
