32

Li 1.577181 3.162674 3.808173
Li 1.043495 4.788263 0.840430
Li 1.540951 4.677945 6.371317
Li 1.008636 0.055402 9.327564
Li 3.642570 1.686239 4.781161
Li 3.578149 3.198640 7.350103
Li 4.181051 0.196481 1.806444
Li 4.119486 1.709463 10.312765
Fe 3.616236 6.326721 7.439087
Fe 4.139209 3.311611 1.900130
Fe 1.020776 3.191479 9.237185
Fe 1.568532 6.283467 3.723093
Si 1.005036 1.543799 6.550363
Si 1.580595 1.670652 1.020754
Si 3.581134 4.826543 10.129843
Si 4.178419 4.820839 4.602757
O 0.661354 4.696220 4.610801
O 1.060187 3.002313 1.861226
O 1.068309 0.279021 1.773537
O 1.600909 1.567156 5.018014
O 0.989507 1.648250 10.547443
O 1.516909 2.930721 7.315484
O 1.523556 0.208678 7.385773
O 1.925389 4.767243 10.149561
O 3.236257 1.719831 1.007932
O 3.661559 6.153074 3.760939
O 3.578635 4.793057 6.134428
O 4.093389 6.217891 9.380632
O 3.667870 3.433694 3.841127
O 4.175615 4.852945 0.602502
O 4.100207 3.497498 9.283965
O 4.522493 1.679262 6.549202
