68

P 0.271640 2.247535 6.210093
P 0.935490 1.004106 1.811268
P 0.956331 3.451079 10.533804
P 3.457555 5.447719 4.382313
P 3.436714 7.894693 7.962257
P 4.121406 6.691149 12.285968
P 4.664685 2.196078 0.101194
P 5.349376 0.992534 4.424906
P 5.328535 3.439508 8.004850
P 7.829760 5.436148 1.853358
P 7.850600 7.883121 10.575894
P 8.514451 6.639692 6.177070
W 2.204676 4.153872 1.453652
W 2.188369 8.597486 4.739930
W 2.201882 4.745335 7.600879
W 2.191163 0.301721 10.895182
W 6.594927 8.585506 1.491980
W 6.584208 4.141892 4.786284
W 6.597721 0.289741 7.647233
W 6.581414 4.733355 10.933511
O 0.569673 5.679933 6.987542
O 0.568978 5.412001 1.611511
O 0.619665 7.294618 5.026799
O 0.584679 8.208092 10.336544
O 0.970995 1.293740 5.280049
O 1.080531 2.493747 2.040225
O 1.358971 0.565503 0.392162
O 1.387807 4.409975 9.398839
O 1.318608 3.102878 6.970450
O 1.377053 1.985531 10.193685
O 1.726282 0.135726 2.805684
O 1.696603 3.883603 11.800233
O 2.666763 4.579339 3.387897
O 2.696442 8.327216 6.695828
O 3.015992 6.429144 8.302376
O 3.074438 7.546491 11.525611
O 3.034074 5.009117 5.801419
O 3.005238 8.853589 9.097222
O 3.312514 6.937361 4.153356
O 3.422050 5.737354 0.913533
O 3.773380 2.851005 1.166782
O 3.824067 0.968388 4.582070
O 3.808366 3.764478 8.159517
O 3.823373 1.236320 11.508519
O 4.962718 7.650907 0.878643
O 4.977724 5.122749 4.227646
O 4.962024 7.918839 7.805092
O 5.012711 6.036222 11.220380
O 5.364040 3.149873 11.473630
O 5.473576 1.949866 8.233806
O 5.780852 0.033638 3.289941
O 5.752016 3.878110 6.585743
O 5.711653 1.340736 0.861564
O 5.770098 2.458083 4.084787
O 6.089648 0.560011 5.691335
O 6.119328 4.307888 8.999266
O 7.089488 5.003624 0.586929
O 7.059808 8.751501 9.581478
O 7.409038 6.901696 2.193477
O 7.467483 5.784349 5.416700
O 7.398284 4.477252 2.988323
O 7.427120 8.321724 11.995000
O 7.705560 6.393480 10.346937
O 7.815096 7.593487 7.107114
O 8.201411 0.679135 2.050618
O 8.166425 1.592609 7.360364
O 8.217112 3.475226 10.775651
O 8.216418 3.207294 5.399621
