35

Ti 1.164687 1.589379 1.867563
Ti 3.052231 4.165198 4.894218
Ti 7.460179 10.180463 11.962314
Mn 4.315759 5.889460 6.920272
Cr 5.559977 7.587370 8.915361
P 0.346786 5.768869 5.332261
P 4.616692 9.453094 6.455173
P 2.181074 5.090250 9.167200
P 6.448461 6.704242 4.649066
P 4.033904 2.304786 7.383095
P 8.249571 5.990862 8.505864
O 0.545443 7.097772 4.498068
O 0.002459 5.994449 6.453676
O 0.766647 5.800712 8.810605
O 4.293825 8.738205 9.204634
O 2.024300 5.357292 5.615850
O 4.781551 8.094877 7.239357
O 6.244842 10.131515 6.062684
O 8.607954 5.780802 7.387617
O 2.685177 5.048402 3.411681
O 1.733919 3.630509 8.827745
O 1.032168 2.843181 4.790182
O 3.622663 5.949430 8.572299
O 5.014111 5.846981 5.261912
O 7.610663 8.953258 9.012655
O 6.905452 8.161822 5.002577
O 5.960053 6.687214 10.428302
O 2.395754 1.663462 7.787070
O 3.867113 3.677845 6.609122
O 6.590264 6.417766 8.231822
O 4.279951 3.021850 4.621710
O 3.190695 9.055780 5.483960
O 5.451782 2.710266 8.362376
O 7.865933 5.986614 5.043974
O 8.099381 4.688679 9.356823
