64

Li 1.086859 4.427695 5.166635
Li 1.086859 7.832363 5.166635
Li 1.384969 23.789907 2.914168
Li 1.384969 12.990267 2.914168
Li 1.472404 0.730209 0.289454
Li 1.472404 11.529874 0.289454
Li 1.770514 16.687754 2.541921
Li 1.770514 20.092421 2.541921
Li 3.724123 4.582785 2.748869
Li 3.724123 7.677273 2.748869
Li 4.205893 13.030259 4.878525
Li 4.205893 23.749915 4.878525
Li 4.366226 0.770201 2.253811
Li 4.366226 11.489857 2.253811
Li 4.847996 16.842843 0.124154
Li 4.847996 19.937331 0.124154
Mn 0.742094 6.130029 2.381524
Mn 1.329513 15.074526 5.175591
Mn 1.329513 21.705648 5.175591
Mn 1.527860 2.814468 2.550876
Mn 1.527860 9.445590 2.550876
Mn 2.115279 18.390087 5.006239
Mn 3.228757 6.130029 0.478139
Mn 4.229803 14.927087 2.579779
Mn 4.229803 21.853088 2.579779
Mn 4.342315 2.667029 5.204494
Mn 4.342315 9.593030 5.204494
Mn 5.343361 18.390087 3.102854
O 2.021237 7.600402 1.623066
O 2.021237 4.659656 1.623066
O 0.836136 19.860460 4.247780
O 0.836136 16.919714 4.247780
F 0.041923 15.885259 1.532235
F 0.041923 20.894915 1.532235
F 5.615995 13.980561 3.912468
F 5.615995 22.799613 3.912468
F 1.380660 18.390087 1.779562
F 1.354555 13.252068 1.045340
F 1.354555 23.528106 1.045340
F 1.502818 0.992010 3.670054
F 1.502818 11.268048 3.670054
F 1.476707 6.130029 4.404276
F 2.956124 1.720503 1.287753
F 2.956124 10.539555 1.287753
F 2.815449 3.625201 4.156949
F 2.815449 8.634857 4.156949
F 2.876134 20.941062 1.212949
F 2.876134 15.839112 1.212949
F 2.770777 14.047084 3.882121
F 2.770777 22.733090 3.882121
F 4.192195 18.390087 0.938078
F 4.223243 13.167131 1.472780
F 4.223243 23.613044 1.472780
F 4.814725 4.662868 1.062259
F 4.814725 7.597190 1.062259
F 3.757394 16.922926 3.686973
F 3.757394 19.857248 3.686973
F 4.348876 0.907073 4.097494
F 4.348876 11.352985 4.097494
F 4.379924 6.130029 3.562793
F 0.086596 1.787026 1.257406
F 0.086596 10.473032 1.257406
F 5.695984 3.579054 3.837663
F 5.695984 8.681004 3.837663
