12

Li 3.291373 4.226576 4.783322
Li 1.830677 2.350841 1.594441
V 0.000000 0.000000 0.000000
V 0.000000 0.000000 3.188881
F 1.068070 4.054470 1.594441
F 1.194605 4.216963 4.783322
F 3.968487 5.096084 3.300830
F 3.968487 5.096084 6.265814
F 1.153562 1.481333 0.111949
F 1.153562 1.481333 3.076933
F 3.927439 2.360452 1.594441
F 4.053979 2.522942 4.783322
