22

Li 0.753556 2.547197 7.656885
Li 1.802708 2.967352 2.552295
Li 3.309819 -0.919932 7.656885
Li 4.358971 -0.499777 2.552295
Mn 0.832437 3.361782 5.104590
Mn 1.723826 2.152767 0.000000
Mn 3.388700 -0.105347 0.000000
Mn 4.280090 -1.314362 5.104590
Cr 0.000000 0.000000 0.000000
Cr 2.556263 1.023710 5.104590
O 0.106918 2.961028 1.083266
O 5.005608 -0.913608 9.125915
O 0.872846 1.922179 4.021325
O 2.449345 2.553521 6.187856
O 0.845632 0.338651 6.085254
O 1.710631 0.685059 0.980663
O 3.401896 1.362361 9.228517
O 1.683417 3.592370 9.125915
O 4.266894 1.708769 4.123927
O 2.663182 -0.506101 4.021325
O 4.239680 0.125241 6.187856
O 3.429110 -1.544950 1.083266
