11

Fe 2.257279 3.025073 -0.959772
Fe 2.257279 5.544556 0.662602
Fe 5.069471 4.274327 0.188312
O 3.597287 4.820874 -0.669302
F 0.787996 1.056026 3.747690
F 0.747119 1.001245 1.547557
F 0.747119 3.381021 3.079968
F 0.954714 3.683907 0.458094
F 3.403373 2.181226 2.631978
F 3.638514 2.471670 0.005458
F 3.638514 4.876125 1.553762
