40

Li 1.039333 3.914136 2.528628
Li 1.234715 7.329126 0.041878
Li 1.436958 0.403859 2.549246
Li 3.477331 4.702245 0.009984
Li 3.679574 3.030740 2.581140
Li 3.874956 8.212522 5.067890
Li 5.953622 0.384250 2.528628
Li 6.149004 5.566031 0.041878
Li 6.351247 3.894527 2.549246
Li 8.391620 8.192912 0.009984
Li 8.593863 1.267646 2.581140
Li 8.789245 4.682636 5.067890
Fe 1.255080 2.068727 5.077315
Fe 3.659209 6.367113 2.538053
Fe 6.169369 2.229659 5.077315
Fe 8.573498 6.528044 2.538053
F 0.087406 0.733614 4.164893
F 0.214941 2.105143 1.647092
F 0.241390 3.515366 4.275351
F 2.227490 0.505576 0.741002
F 2.349237 1.988683 3.467489
F 2.445006 3.335616 0.936348
F 2.469283 7.634002 3.475610
F 2.565052 6.287068 0.928227
F 2.686799 4.803962 3.280264
F 4.672899 7.813752 1.736088
F 4.699348 6.403529 4.186354
F 4.826883 5.032000 1.625631
F 5.001694 3.564772 4.164893
F 5.129230 2.193243 1.647092
F 5.155679 0.783020 4.275351
F 7.141779 3.792810 0.741002
F 7.263525 2.309703 3.467489
F 7.359295 0.962770 0.936348
F 7.383572 5.261155 3.475610
F 7.479341 6.608089 0.928227
F 7.601088 8.091195 3.280264
F 9.587188 5.081406 1.736088
F 9.613637 6.491629 4.186354
F 9.741172 7.863157 1.625631
