28

Li 1.531348 4.831759 2.269252
Li 3.130914 1.610586 4.777550
Li 6.193610 4.831759 0.239046
Li 7.793176 1.610586 2.747344
V 0.000000 0.000000 0.000000
V 0.000000 3.221173 0.000000
V 4.662262 0.000000 2.508298
V 4.662262 3.221173 2.508298
P 1.662199 1.610586 2.425123
P 3.000063 4.831759 4.933421
P 6.324461 1.610586 0.083175
P 7.662325 4.831759 2.591473
O 1.237094 1.610586 3.946651
O 1.139923 0.326311 1.760800
O 1.139923 2.894861 1.760800
O 1.432256 4.831759 4.754730
O 3.230006 1.610586 2.246432
O 3.522339 6.116034 4.269098
O 3.522339 3.547484 4.269098
O 3.425168 4.831759 1.438353
O 5.899356 1.610586 3.578243
O 5.802185 0.326311 0.747498
O 5.802185 2.894861 0.747498
O 6.094518 4.831759 2.770164
O 7.892268 1.610586 0.261866
O 8.184601 3.547484 3.255796
O 8.184601 6.116034 3.255796
O 8.087430 4.831759 1.069945
