15

Li -0.000010 2.904490 3.402244
Li 5.219213 4.333292 8.231638
Li 5.219202 7.237770 10.344190
Cu 0.000000 2.904481 2.112562
Cu 5.219171 10.142201 11.167010
Cu 5.219202 7.237758 9.054503
Te 0.000021 0.000029 0.000031
O 0.000418 0.000782 0.692824
O 10.422642 11.834445 16.757621
O 5.721572 10.554479 12.411088
O 10.437997 14.474760 19.995566
O 4.712834 6.539882 9.004353
O 0.015814 2.641155 3.930829
O 4.716874 3.921119 8.277347
O 5.725601 7.935683 11.684062
