22

Li 3.243642 4.019757 4.624179
Ti 0.808011 6.142317 5.666816
Ti 2.058246 6.027995 2.069092
Ti 0.325759 2.067409 5.844483
Ti 1.765307 2.187696 2.516645
Ti 4.721977 5.851817 6.731714
Ti 6.161525 5.972104 3.403876
Ti 4.429037 2.011518 7.179267
Ti 5.679273 1.897196 3.581543
O 1.337353 6.309975 3.835958
O 0.304948 4.093417 5.785776
O 2.727118 5.867504 6.343869
O 1.718507 4.090301 2.363017
O 4.174061 6.109925 2.528968
O 1.169450 1.976526 4.210147
O 0.000000 0.000000 0.000000
O 5.317834 6.062987 5.038212
O 2.313223 1.929588 6.719391
O 4.768776 3.949213 6.885342
O 3.760166 2.172010 2.904489
O 6.182336 3.946096 3.462583
O 5.149930 1.729538 5.412401
