48

Li 1.915651 11.478744 4.447137
Li 0.598789 4.965427 0.144771
Li 4.430090 8.061207 9.039045
Li 3.113228 1.547890 4.736679
P 0.946063 1.111784 9.065369
P 1.047918 9.818878 8.049567
P 1.466522 3.305561 7.111796
P 1.568377 7.625101 6.095995
P 3.460502 5.401533 3.087821
P 3.562357 9.721074 2.072020
P 3.980961 3.207757 1.134249
P 4.082816 11.914850 0.118447
W 0.972143 7.479698 2.797651
W 1.542297 0.966381 1.794257
W 3.486582 12.060253 7.389559
W 4.056736 5.546936 6.386165
O 0.089967 10.992564 7.891342
O 0.019789 3.834168 7.078197
O 0.420389 6.679433 6.596945
O 0.617858 8.826782 9.120933
O 0.351730 12.279570 2.073555
O 0.226586 7.348728 1.303701
O 0.702720 1.215593 0.021284
O 1.158186 9.115244 6.570102
O 1.356253 2.601927 8.591262
O 1.896581 2.313465 6.040431
O 1.811719 7.728910 4.570624
O 2.094050 0.166116 8.564419
O 2.287853 0.835411 3.288207
O 2.494651 10.347485 8.083167
O 2.424473 4.479247 7.270022
O 2.162710 5.766253 2.518353
O 2.866169 7.260382 6.665463
O 2.604406 8.547387 1.913795
O 2.534228 2.679149 1.100649
O 2.741026 12.191223 5.895609
O 2.934829 12.860518 0.619398
O 3.217160 5.297724 4.613192
O 3.132298 10.713169 3.143385
O 3.672626 10.424707 0.592554
O 3.870693 3.911390 2.613715
O 4.326159 11.811041 9.162533
O 4.802293 5.677906 7.880115
O 4.677149 0.747064 7.110261
O 4.411021 4.199852 0.062884
O 4.608490 6.347201 2.586871
O 5.009090 9.192466 2.105620
O 4.938912 2.034070 1.292474
