28

Li 4.763812 10.670434 0.084889
Li 4.763812 10.670434 3.286129
Li 2.419758 5.493443 3.374389
Li 2.419758 5.493443 6.738665
Ni 0.110144 7.974910 5.056527
Sn 2.301570 2.308031 5.056527
Sn 2.587882 8.485733 1.685509
Sn 4.617153 3.039556 1.685509
P 0.422984 6.430152 1.685509
P 1.874826 0.755198 1.685509
P 2.998758 9.708737 5.056527
P 4.430636 4.637504 5.056527
O 1.142936 4.998835 1.685509
O 0.973232 7.170523 0.421283
O 0.973232 7.170523 2.949735
O 1.120637 4.768265 5.056527
O 1.465684 9.613249 5.056527
O 1.343315 1.555762 0.435064
O 1.343315 1.555762 2.935954
O 1.118278 10.378544 1.685509
O 3.507679 0.194996 5.056527
O 3.698940 8.984426 3.840938
O 3.698940 8.984426 6.272116
O 3.395151 0.504184 1.685509
O 3.738706 6.090469 1.685509
O 3.803139 3.897700 3.822984
O 3.803139 3.897700 6.290070
O 3.842808 6.096404 5.056527
