20

Li 0.000000 2.955643 0.000000
Li 2.215974 0.000000 3.911269
V 0.000000 2.955643 3.826681
V 2.215974 0.000000 0.084588
C 0.007109 0.776832 5.757360
C 2.208865 3.732475 5.807271
C 2.223083 2.178812 2.015267
C 4.424840 5.134455 2.065178
O 1.031425 2.663851 2.035384
O 0.542634 1.130067 4.638522
O 0.668147 0.970852 6.872883
O 1.547827 3.926496 4.691748
O 1.673340 4.085710 6.926109
O 1.184549 5.619494 1.875885
O 3.247399 0.291793 5.946652
O 2.758609 1.825577 0.896429
O 2.884121 1.984791 3.130790
O 3.763801 4.940435 0.949654
O 3.889314 4.781220 3.184015
O 3.400523 3.247436 5.787154
