34

P 0.298759 5.910341 5.513505
P 4.233952 2.546060 7.764808
P 6.840494 7.265861 5.193580
P 2.255799 5.308810 9.580247
P 4.862342 10.028611 7.009018
P 8.797535 6.664329 9.260321
W 1.307901 1.808036 2.124240
W 3.223808 4.456576 5.235977
W 5.872485 8.118094 9.537849
W 7.788392 10.766634 12.649586
O 1.382500 2.541307 5.063746
O 2.132362 5.091482 3.626903
O 4.683345 3.700372 4.624543
O 1.698232 5.210557 5.789753
O 0.827908 7.393827 4.892720
O 0.044936 6.092952 6.634044
O 2.545616 2.075573 8.126253
O 4.272465 3.742982 6.833781
O 5.105067 6.357544 5.365269
O 1.874773 3.878616 9.143271
O 0.831792 5.955723 8.890797
O 3.406207 9.452618 5.994942
O 5.690086 3.122052 8.778884
O 8.264501 6.618948 5.883029
O 7.221520 8.696055 5.630556
O 3.991226 6.217127 9.408557
O 4.823828 8.831689 7.940046
O 6.550677 10.499097 6.647573
O 9.051358 6.481719 8.139782
O 8.268385 5.180844 9.881107
O 7.398061 7.364114 8.984073
O 4.412948 8.874298 10.149283
O 6.963931 7.483189 11.146924
O 7.713793 10.033364 9.710080
