24

Mn 3.945180 2.329886 2.400755
Mn 4.926920 0.996976 7.003019
Mn 4.926682 -1.539015 6.891991
Cu 0.980157 3.753326 2.173643
Cu 0.977491 1.232210 2.062568
Cu 1.997244 -0.109754 6.720189
Te 1.982670 2.439688 4.746489
Te 3.907655 -0.215266 9.449321
O 0.989309 3.750144 5.738894
O 0.279074 2.535183 3.342815
O 2.047866 2.439963 1.353195
O 5.902215 2.215638 3.359784
O 5.855258 2.225782 8.001015
O 0.988952 1.236373 5.626948
O 3.032878 3.489400 3.636440
O 3.025744 1.270740 3.537055
O 1.926389 -0.109094 1.013540
O 3.902716 2.332201 5.998520
O 3.156831 0.983320 8.099997
O 3.156837 -1.331369 7.998132
O 4.046663 -0.223069 5.954074
O 4.852888 0.979096 1.326172
O 5.692740 -0.312763 8.172481
O 4.858207 -1.513221 1.219853
