24

Nb 1.896462 2.365299 4.613310
Nb 3.787575 -0.238289 9.210974
Co 0.959085 3.620724 1.996261
Co 0.954014 1.186873 1.982332
Co 3.771807 2.206466 2.007521
Co 1.912229 -0.131817 6.606638
Co 4.724952 0.884530 6.593199
Co 4.730022 -1.550049 6.579266
O 0.930141 3.664018 5.555724
O 0.201812 2.433369 3.041878
O 1.932345 2.337724 1.037644
O 5.644260 2.065702 2.876687
O 0.039777 -0.007684 7.477253
O 0.905598 1.145796 5.555666
O 2.756826 3.368156 3.078143
O 2.735789 1.156746 3.037225
O 1.846067 -0.117771 0.941016
O 3.837970 2.211152 5.565675
O 2.927211 0.886283 7.676473
O 2.948247 -1.328102 7.635539
O 3.751692 -0.260783 5.635336
O 4.753895 0.923723 0.928812
O 5.482225 -0.409963 7.638230
O 4.778439 -1.597975 0.928736
