15

Li 0.807553 1.472299 2.946647
Li 1.092070 2.675772 0.667411
Li 3.771303 1.906402 4.426320
Li 4.055820 3.109875 2.147085
Fe 0.000000 0.000000 0.000000
Si 1.741326 4.156439 3.699827
Si 3.122047 0.425734 1.393904
O 0.852496 3.654443 5.071763
O 1.175113 3.427298 2.418952
O 1.516064 0.718341 1.217875
O 1.187665 0.359679 4.566200
O 3.675708 4.222494 0.527531
O 3.347309 3.863833 3.875857
O 3.688261 1.154875 2.674779
O 4.010877 0.927730 0.021969
