24

Nb 1.272940 3.095190 2.139855
Nb 3.095190 1.272940 0.000000
Nb 3.095190 4.917440 4.279711
Nb 4.917440 3.095190 6.419566
Fe 1.640835 1.640835 5.349639
Fe 1.640835 4.549546 7.489494
Fe 4.549546 1.640835 3.209783
Fe 4.549546 4.549546 1.069928
O 0.024334 1.716042 2.329104
O 0.024334 4.474339 1.950607
O 1.716042 0.024334 8.370173
O 1.716042 6.166046 4.468960
O 1.720505 3.064870 0.165231
O 1.720505 3.125511 4.114471
O 3.064870 1.720505 1.974616
O 3.064870 4.469876 2.305095
O 3.125511 1.720505 6.584797
O 3.125511 4.469876 6.254335
O 4.469876 3.125511 4.444942
O 4.469876 3.064870 8.394191
O 4.474339 0.024334 0.189249
O 4.474339 6.166046 4.090462
O 6.166046 1.716042 6.230317
O 6.166046 4.474339 6.608815
