24

Na 0.000000 0.000000 0.000000
Na 0.000000 0.000000 0.000000
Na 0.000000 0.000000 0.000000
Na 0.000000 0.000000 0.000000
Cu 0.000000 0.000000 0.000000
Cu 0.000000 0.000000 0.000000
P 0.000000 0.000000 0.000000
P 0.000000 0.000000 0.000000
C 0.000000 0.000000 0.000000
C 0.000000 0.000000 0.000000
O 0.000000 0.000000 0.000000
O 0.000000 0.000000 0.000000
O 0.000000 0.000000 0.000000
O 0.000000 0.000000 0.000000
O 0.000000 0.000000 0.000000
O 0.000000 0.000000 0.000000
O 0.000000 0.000000 0.000000
O 0.000000 0.000000 0.000000
O 0.000000 0.000000 0.000000
O 0.000000 0.000000 0.000000
O 0.000000 0.000000 0.000000
O 0.000000 0.000000 0.000000
O 0.000000 0.000000 0.000000
O 0.000000 0.000000 0.000000
