28

Li 5.222171 8.475759 10.962490
Li 5.203476 4.574193 6.854466
Li 0.004348 1.931059 2.087653
Li 5.206893 6.540050 8.981191
Cr 2.544568 6.685264 2.602415
Cr 2.731548 3.770940 3.201597
Cr 2.479573 2.757316 5.726052
Cr 2.735284 1.816662 8.401129
Cr 2.491471 4.716993 7.840195
Cr 2.722261 7.681919 7.303680
Fe 2.520761 0.790868 3.706049
Fe 2.708489 5.726115 5.231614
O 1.497901 0.439400 1.899057
O 1.614440 3.335681 1.433217
O 1.609877 5.197742 3.515743
O 1.439452 2.439673 3.986114
O 1.556450 7.245895 5.545547
O 1.450382 4.379607 5.974906
O 1.629770 1.371410 6.631687
O 3.757165 2.146433 2.969665
O 1.478479 6.266339 8.058154
O 3.779276 4.058510 5.047383
O 3.643159 1.331211 5.421762
O 3.693399 7.099750 4.367676
O 3.617228 3.310496 7.453776
O 3.723118 6.048465 7.063266
O 3.772197 8.050945 9.137815
O 3.650741 5.201992 9.542152
