24

Li 0.470139 0.681866 1.803869
Li 0.399915 3.935988 2.374736
Li 3.525377 2.878198 6.688511
Li 3.453305 6.132297 7.258737
Mn 3.428316 1.775242 3.354134
Mn 0.496602 5.039682 5.708998
P 3.081570 4.913850 4.104337
P 0.843312 1.901191 4.958327
C 3.210121 1.624015 0.837336
C 0.713276 5.190163 8.226954
O 0.647642 5.284442 0.990093
O 4.327813 1.709931 1.606164
O 2.131674 1.654123 1.497101
O 3.616337 -0.187566 3.319199
O 3.602140 3.740107 3.236575
O 1.498040 4.925203 4.052067
O 0.336624 2.047778 3.493589
O 3.588158 4.767134 5.569800
O 2.426752 1.889938 5.011201
O 0.322394 3.074819 5.826765
O 0.308513 0.640458 5.613271
O 1.792487 5.159614 7.565338
O 4.860106 4.826127 7.970700
O 3.276160 1.529715 8.071639
