16

Li 1.772073 2.354634 5.890994
Li 1.888519 2.397517 2.489768
Li 3.223352 5.340265 6.968955
Li 3.335877 5.385454 3.557405
V 5.118056 7.751517 2.655337
V 0.003793 5.181195 6.059994
F 0.948588 5.664016 4.363008
F 1.218863 1.474437 4.146409
F 0.149661 3.393989 2.709607
F 1.704957 4.163391 6.084417
F 3.032423 2.395766 0.733572
F 4.182374 7.274447 7.751212
F 2.080938 5.345213 8.715845
F 3.426035 3.574983 3.349602
F 4.968983 4.356847 6.760939
F 3.905915 6.263922 5.305871
