72

Li 1.552872 2.230421 6.953772
Li 2.742002 3.793391 2.515719
Li 5.847745 8.254220 6.360386
Li 7.036876 9.817215 1.922334
V 0.251439 5.951187 2.224130
V 0.986799 10.355011 3.413262
V 0.947810 1.672685 1.023504
V 3.308075 7.779489 7.851315
V 3.347064 4.351127 5.461556
V 4.043435 0.072625 6.662183
V 4.546313 11.974999 2.213923
V 5.242684 7.696497 3.414549
V 5.281672 4.268135 1.024791
V 7.641937 10.374939 7.852602
V 7.602949 1.692613 5.462843
V 8.338308 6.096437 6.651975
Co 2.167236 10.717828 0.224113
Co 2.127637 7.416672 4.662165
Co 2.161936 4.580000 8.629270
Co 2.132937 1.443811 4.191217
Co 6.456810 10.603812 4.684888
Co 6.427811 7.467623 0.246836
Co 6.462110 4.630951 4.213940
Co 6.422511 1.329796 8.651993
O 0.700863 10.920887 7.894941
O 0.670481 7.407836 5.853294
O 0.683795 5.307285 7.824047
O 0.693227 2.196076 5.130593
O 0.914636 7.147129 3.289946
O 1.050311 10.291714 1.648133
O 1.237680 11.984285 3.885471
O 1.189732 2.977821 8.773977
O 1.490313 2.188759 2.604933
O 1.599377 5.106719 1.474232
O 2.053783 9.270174 4.221884
O 2.241091 8.864326 8.659937
O 2.247911 5.596086 4.942961
O 2.046963 0.427726 0.504908
O 2.695497 0.917093 5.912285
O 2.804561 3.835053 7.042985
O 3.057194 6.150215 8.323523
O 3.244562 7.842785 6.086186
O 3.380237 10.987371 7.727999
O 3.105142 3.045990 4.335924
O 3.624392 10.726664 1.415242
O 3.594010 7.213613 3.456888
O 3.601647 3.827735 0.692540
O 3.611078 0.716527 3.385995
O 4.978669 11.331096 5.490111
O 4.988101 8.219888 8.183565
O 4.995737 4.834011 5.419217
O 4.965355 1.320960 7.460864
O 5.484605 9.001633 4.540181
O 5.209510 1.060253 1.148106
O 5.345185 4.204838 2.789920
O 5.532553 5.897409 0.552582
O 5.785186 8.212571 1.833120
O 5.894250 11.130531 2.963820
O 6.542785 11.619897 8.371197
O 6.341836 6.451538 3.933144
O 6.348656 3.183298 0.216169
O 6.535964 2.777450 4.654221
O 6.990371 6.940905 7.401873
O 7.099435 9.858865 6.271173
O 7.400016 9.069802 0.102128
O 7.352068 0.063339 4.990635
O 7.539436 1.755909 7.227972
O 7.675111 4.900495 5.586159
O 7.896520 9.851547 3.745512
O 7.905952 6.740339 1.052058
O 7.919266 4.639788 3.022811
O 7.888884 1.126737 0.981165
