68

Cr 1.764498 9.042726 1.142444
Cr 3.672492 3.118609 5.770704
Cr 5.052797 8.931206 9.337420
Cr 6.960791 3.230130 4.179823
Cr 10.489787 8.395064 6.464712
Cr 12.397780 2.693987 1.307115
Cr 13.778086 8.506584 4.873830
Cr 15.686080 2.582467 9.502091
P 0.931826 2.764657 7.141949
P 2.371254 8.032916 7.946736
P 4.407650 10.045353 2.446611
P 4.317639 4.232756 2.875656
P 6.354035 2.220319 7.161388
P 7.793463 8.577254 7.966176
P 9.657115 3.047940 2.678359
P 11.096543 9.404874 3.483147
P 13.132938 7.392437 7.768878
P 13.042928 1.579841 8.197924
P 15.079324 3.592278 2.697798
P 16.518752 8.860536 3.502586
S 0.810405 7.800505 2.897083
S 0.341630 1.469866 8.637945
S 1.275393 7.240112 9.562926
S 1.726717 1.808578 5.486582
S 1.565038 7.978312 6.231188
S 2.544818 10.941795 2.219120
S 2.449032 4.074479 7.568592
S 3.211500 4.999693 4.501136
S 2.845107 9.899491 8.828292
S 3.529275 4.304449 1.149537
S 3.964405 8.136089 1.634544
S 4.208905 7.096250 8.185778
S 4.516384 1.283654 6.922347
S 4.760884 2.323492 3.687724
S 5.196014 10.117045 4.172730
S 5.513789 10.812290 0.821141
S 5.880182 4.086895 6.279833
S 6.180471 5.129198 3.103147
S 6.276257 9.887076 7.539533
S 7.160251 2.165715 8.876936
S 6.998572 7.621174 9.621542
S 7.449896 1.427516 5.545198
S 7.914884 1.987908 2.425184
S 8.383659 7.282463 6.470180
S 9.066919 4.342730 4.174355
S 9.535694 9.637285 8.219350
S 10.000682 10.197678 5.099336
S 10.452006 4.004019 1.022993
S 10.290327 9.459478 1.767599
S 11.174320 1.738118 3.105002
S 11.270107 6.495995 7.541388
S 11.570396 7.538298 4.364702
S 11.936789 0.812903 9.823404
S 12.254564 1.508148 6.471805
S 12.689694 9.301701 6.956811
S 12.934194 10.341539 3.722188
S 13.241673 4.528943 2.458757
S 13.486173 3.489104 9.009991
S 13.921303 7.320745 9.494997
S 14.605471 1.725702 1.816243
S 14.239078 6.625500 6.143399
S 15.001546 7.550714 3.075953
S 14.905760 0.683399 8.425414
S 15.885540 3.646881 4.413346
S 15.723861 9.816615 5.157952
S 16.175185 4.385081 1.081609
S 17.108948 10.155327 2.006590
S 16.640173 3.824689 7.747452
