28

Li 1.957032 2.460966 8.678839
Li 0.008390 -0.000470 9.642243
Li 0.045564 -0.002669 4.762814
Li 4.003747 -0.243737 3.710706
Mn 3.979566 2.337755 1.790445
Mn 4.990431 0.966720 6.662005
Mn 4.990509 -1.574340 6.728743
Cr 1.026063 3.784853 1.935174
Cr 1.025986 1.250320 2.001857
Cr 2.045127 -0.124498 6.869395
Sb 2.021875 2.456981 4.558047
Sb 3.943357 -0.240072 9.428429
O 1.066815 3.809209 5.615922
O 0.223492 2.566534 3.232719
O 2.042526 2.455677 0.936436
O 5.956452 2.217389 2.582062
O 5.989167 2.215395 7.437341
O 1.066809 1.221099 5.683921
O 2.858480 3.579100 3.138888
O 2.858534 1.233021 3.200456
O 1.977318 -0.120397 0.867622
O 4.060470 2.332844 5.498586
O 2.991419 0.958667 8.103489
O 2.991659 -1.322986 8.163383
O 4.012683 -0.244268 5.796876
O 5.019095 0.983234 0.603946
O 5.728609 -0.348730 7.974810
O 5.019029 -1.594439 0.671674
