68

Bi 2.330331 7.985031 5.010404
Bi 2.350308 11.417825 0.337688
Bi 2.337960 1.478376 4.313468
Bi 2.342678 4.978490 8.986184
Bi 7.018599 7.935242 0.359248
Bi 7.023317 11.435356 5.031964
Bi 7.010970 1.495907 9.007744
Bi 7.030947 4.928700 4.335028
S 0.358893 6.389577 2.295500
S 0.936764 10.944950 3.578291
S 0.946687 1.988168 0.997326
S 3.743875 8.457906 8.251007
S 3.733952 4.468698 5.670042
S 4.321746 0.067289 6.968216
S 5.039532 12.846443 2.377216
S 5.627326 8.445034 3.675390
S 5.617403 4.455826 1.094425
S 8.414590 10.925564 8.348106
S 8.424513 1.968782 5.767141
S 9.002385 6.524155 7.049932
O 0.301873 5.731030 8.098284
O 0.537656 11.010913 8.216551
O 0.570458 7.609085 6.558279
O 0.514121 2.269279 5.569476
O 0.766904 7.281263 3.410802
O 1.301676 10.471306 2.211849
O 1.212847 12.395710 3.718884
O 1.303923 2.941703 9.244642
O 1.525551 2.462611 2.281846
O 1.571899 5.731275 1.725812
O 1.479419 0.652040 0.637424
O 1.731518 10.201908 4.604036
O 2.949121 9.200948 9.276753
O 3.201220 5.804825 5.310140
O 3.108740 0.725591 6.398528
O 3.155088 3.994255 6.954562
O 3.467792 7.007146 8.391600
O 3.376716 3.515162 4.571926
O 3.378963 8.931550 6.884565
O 3.913735 12.121593 8.083518
O 4.110181 11.793771 1.885562
O 4.142983 8.391943 3.543835
O 4.166518 4.187587 0.896760
O 4.378766 0.725836 3.425568
O 4.982512 12.187896 5.919864
O 5.194760 8.726145 8.448673
O 5.218295 4.521788 5.801598
O 5.251096 1.119961 7.459870
O 5.447543 0.792139 1.261914
O 5.982315 3.982182 2.460867
O 5.984562 9.398569 4.773507
O 5.893486 5.906586 0.953832
O 6.206190 8.919477 2.390870
O 6.252538 12.188141 2.946904
O 6.160058 7.108906 4.035292
O 6.412157 3.712783 0.068680
O 7.629760 2.711824 4.741396
O 7.881859 12.261691 8.708008
O 7.789379 7.182457 7.619621
O 7.835727 10.451121 7.063586
O 8.057355 9.972028 0.100790
O 8.148431 0.518022 5.626548
O 8.059601 2.442426 7.133583
O 8.594374 5.632468 5.934630
O 8.847156 10.644453 3.775956
O 8.790820 5.304646 2.787154
O 8.823622 1.902819 1.128881
O 9.059405 7.182702 1.247148
