12

Mn -0.002026 2.941806 2.196256
Mn 5.197894 4.069234 9.226905
Mn 5.195899 7.010140 8.862254
Te -0.001143 -0.001224 -0.001464
O 0.293418 0.229904 1.041583
O 9.887907 10.709369 15.632206
O 5.521703 10.208397 12.121629
O 10.096479 13.787700 19.240687
O 4.639610 6.547189 8.885150
O 0.502582 3.309929 4.651218
O 4.866760 3.807896 8.159068
O 5.751710 7.472482 11.399281
