14

Li 2.453439 3.153740 6.407760
Li -0.004424 1.245754 2.047974
Co 2.470461 4.430405 3.528562
Co 0.006818 5.747769 7.924631
Co -0.028829 3.040757 4.087756
Co 2.432066 1.392252 4.381307
O 4.119983 5.118417 4.273887
O 0.897271 3.776564 2.699170
O 3.244246 5.216630 7.193177
O 3.356023 2.427576 3.145931
O 1.712194 3.464453 4.783089
O 1.570929 0.607941 0.783280
O 4.042033 2.050279 5.320298
O 0.762878 0.882757 3.657616
