26

Li 0.880826 1.575851 3.829395
Li 2.443112 0.210149 1.206515
Li 2.443112 2.941553 1.206515
Li 6.002732 3.361851 4.087796
Li 6.002732 6.093254 4.087796
Li 7.565019 4.727553 1.464917
Mn 2.738024 4.727553 4.073818
Mn 5.707820 1.575851 1.220493
Si 3.605599 1.575851 3.670829
Si 4.840246 4.727553 1.623482
C 0.148123 4.727553 3.662233
C 8.297721 1.575851 1.632078
O 1.082048 1.575851 1.791989
O 0.483347 4.727553 4.900787
O 1.101634 4.727553 2.749243
O 2.617325 0.336488 4.179592
O 2.617325 2.815213 4.179592
O 3.800799 1.575851 2.037603
O 3.357823 4.727553 0.959578
O 5.088022 1.575851 4.334734
O 4.645045 4.727553 3.256708
O 5.828519 3.488190 1.114720
O 5.828519 5.966915 1.114720
O 7.344211 1.575851 2.545068
O 7.962497 1.575851 0.393524
O 7.363797 4.727553 3.502322
