28

Li 1.652640 4.728508 3.456772
Li 3.522488 1.413241 0.936610
Li 6.826785 4.729357 4.104446
Li 8.696261 1.413931 1.583881
Co 1.652837 1.429430 3.453340
Co 3.521764 4.745874 0.932945
Co 6.827116 1.430333 4.107980
Co 8.696023 4.746525 1.587404
Si 0.958141 6.380866 0.937044
Si 4.216242 3.066015 3.457281
Si 6.132793 6.381914 1.583523
Si 9.389849 3.066487 4.103972
O 0.635646 2.967874 3.729868
O 1.202525 6.482580 4.351185
O 1.635896 1.084357 1.617873
O 1.756872 5.056656 1.496849
O 3.417118 1.741055 4.017348
O 3.538228 4.400427 4.138118
O 3.971775 3.167039 1.830824
O 4.538892 6.284471 1.209466
O 5.809367 2.968757 3.831405
O 6.376773 6.483244 3.209938
O 6.810062 1.085008 0.902712
O 6.931213 5.057274 1.023471
O 8.591781 1.742051 3.544102
O 8.712643 4.401065 3.423244
O 9.146065 3.167683 0.689496
O 9.713513 6.285195 1.310847
