40

Li 2.194638 7.705229 7.977972
Li 6.410513 4.764888 6.405741
Li 6.441389 9.320995 6.516292
Li 6.395604 6.193061 9.918738
Mn 0.009100 7.598048 2.530488
Mn 0.529875 5.245966 6.528630
Mn 4.324990 6.126332 7.232782
Mn 3.788281 8.639570 10.346181
Mn 8.348426 7.247287 7.981050
Co 4.708720 3.762905 4.077360
P 2.188503 3.136284 5.868441
P 2.136082 8.360524 5.285498
P 2.163658 5.443727 9.379960
P 6.460727 7.112890 4.988129
P 6.569463 3.977600 9.178023
P 6.335635 9.262220 8.659150
O 0.467390 0.991198 2.709593
O 0.520293 4.305229 2.252908
O 0.537528 2.635453 4.940842
O 2.090547 1.804428 6.773509
O 3.798604 3.603578 5.463579
O 2.281736 4.364223 6.461034
O 2.067857 8.138209 4.070820
O 2.253151 6.977924 6.092669
O 4.887483 7.397128 11.373288
O 2.454190 5.774625 8.157398
O 6.700088 5.759795 4.761607
O 5.099112 10.396972 11.119173
O 3.736429 9.474759 5.867535
O 1.902030 6.809788 9.557126
O 6.205027 6.804776 6.212037
O 3.770227 5.147655 10.157063
O 6.336488 5.345759 8.425262
O 6.647047 4.200609 10.412114
O 6.248692 8.053856 8.029672
O 4.630938 8.802394 8.957825
O 6.559165 10.585818 7.764073
O 7.816646 9.612279 9.701413
O 8.050026 8.335402 12.116337
O 8.284509 11.413442 11.740929
