36

Mn 0.617661 5.092313 6.391606
Mn 4.870179 3.561274 3.849380
Mn 3.634857 8.241211 9.975480
Mn 7.887375 6.710172 7.433253
Co 0.000000 0.000000 0.000000
Co 4.252518 5.901242 6.912430
P 2.126259 2.950621 5.509445
P 2.126259 8.210127 5.176738
P 2.126259 5.123397 9.137118
P 6.378777 6.679088 4.687742
P 6.378777 3.592358 8.648122
P 6.378777 8.851864 8.315414
O 0.538029 1.136248 2.736372
O 0.538029 4.073277 2.330982
O 0.538029 2.581960 4.618568
O 1.921951 1.650046 6.413602
O 3.714490 3.319282 5.069297
O 2.330567 4.251196 6.107249
O 1.921951 7.997512 3.906734
O 2.330567 6.833334 5.926804
O 4.790547 7.037490 4.034706
O 2.330567 5.336012 7.877061
O 6.583085 5.302295 4.409708
O 4.790547 2.542238 8.178287
O 3.714490 9.260247 5.646573
O 1.921951 6.500190 9.415152
O 6.174469 6.466473 5.947798
O 3.714490 4.764995 9.790153
O 6.174469 4.969151 7.898055
O 6.583085 3.804973 9.918126
O 6.174469 7.551289 7.717611
O 4.790547 8.483203 8.755562
O 6.583085 10.152439 7.411258
O 7.967008 9.220525 9.206291
O 7.967008 7.729208 11.493878
O 7.967008 10.666237 11.088487
