20

Li 1.140962 4.482430 -0.252616
Li 2.031453 1.157776 3.994084
Li 2.582975 2.133435 1.161596
Li 3.134497 3.109095 -1.670893
Li 4.024988 -0.215555 2.575805
V 0.464124 3.493176 2.564387
V 4.701826 0.773694 -0.241196
Fe 0.000000 2.568895 -1.509862
Fe 3.576558 3.994991 2.403089
Fe 1.589392 0.271879 -0.079898
O 0.241932 0.363763 5.709278
O 1.776896 3.376124 3.863536
O 0.709512 1.455939 2.677068
O 1.184950 2.261947 -0.121077
O 2.281180 4.193941 1.213814
O 2.884770 0.072930 1.109378
O 3.981000 2.004923 2.444268
O 4.456438 2.810931 -0.353877
O 3.389055 0.890746 -1.540344
O 4.924019 3.903107 -3.386086
