18

Cr 0.000000 0.000000 0.000000
Cr 2.472020 0.963707 4.859665
Co 0.820968 3.208179 4.859665
Co 1.651052 2.079746 0.000000
Co 3.292987 -0.152332 0.000000
Co 4.123072 -1.280764 4.859665
O 4.933666 0.467234 0.946254
O 0.010373 1.460181 8.773075
O 0.796791 1.766763 3.913410
O 2.482392 2.423888 5.805919
O 0.779195 0.303766 5.816192
O 1.692824 0.659941 0.956528
O 3.251215 1.267474 8.762801
O 1.675228 -0.803056 8.773075
O 4.164844 1.623648 3.903137
O 2.461647 -0.496474 3.913410
O 4.147248 0.160651 5.805919
O 3.268811 2.730470 0.946254
