22

Li 4.841691 5.371732 6.722211
Li 1.815819 3.947195 1.552192
Li 0.000106 0.000181 -0.000114
Li 3.217549 2.956754 7.186017
Li 0.191501 1.532420 2.016139
Mn 0.824217 3.372454 4.804447
Mn 3.336598 4.631643 -0.982691
Mn 1.696604 2.272007 9.721441
Mn 4.207587 3.530532 3.934853
Mn 2.516543 5.677044 4.304412
O 0.189025 2.904419 0.933841
O 1.696891 3.609403 8.608808
O 0.542845 1.874752 3.854222
O 2.390067 4.097902 3.392371
O 2.640931 2.804296 5.347453
O 0.925682 0.475660 5.818097
O 4.487504 5.028189 4.885745
O 3.336774 3.294179 0.129265
O 1.850568 0.912536 0.547869
O 4.844413 3.999596 7.804317
O 3.182543 5.991053 8.190231
O 4.105704 6.427345 2.920848
