56

Li 0.019268 0.039210 0.020026
Li 2.064909 2.094486 2.069675
Li 2.103786 6.441909 6.238270
Li 4.149511 8.499089 4.189166
Li 4.186012 4.229295 8.318709
Li 6.233038 2.175648 6.269408
Li 6.273941 6.363709 2.102096
Li 8.319257 4.305708 4.151673
Mn 1.022450 1.052932 5.225615
Mn 1.026827 3.185026 7.271470
Mn 1.069622 5.333923 1.014548
Mn 3.098523 3.203496 5.183838
Mn 3.142444 5.352317 3.103309
Mn 3.146821 7.483216 1.056605
Mn 5.189161 3.215497 3.112724
Mn 5.195172 1.082081 1.066685
Mn 5.237893 7.472039 7.325614
Mn 7.268010 1.065030 3.155540
Mn 7.310414 7.455159 5.237210
Mn 7.316950 5.323843 7.284622
Fe 1.030996 7.469694 3.116672
Fe 3.138233 1.065302 7.282505
Fe 5.199507 5.336537 5.224742
Fe 7.307429 3.202351 1.055638
O 0.909687 0.977793 3.287207
O 0.904585 7.645139 5.188653
O 0.951991 5.165393 7.370367
O 1.067280 1.243670 7.160723
O 0.952283 3.160137 0.837827
O 1.114769 3.029161 5.296584
O 1.207214 5.421433 2.991323
O 1.251293 7.510420 1.129348
O 2.916585 1.025693 5.296791
O 2.961999 3.114518 7.157262
O 3.052142 5.506158 1.127938
O 3.217880 5.378316 5.007239
O 3.101207 7.293297 2.991823
O 3.215946 3.371865 3.203573
O 3.263135 0.891222 1.015987
O 3.259800 7.556587 7.456294
O 5.076482 3.291073 5.052369
O 5.074005 5.160169 3.151179
O 5.119636 7.638471 0.967596
O 5.236592 3.024151 1.176914
O 5.122029 1.106200 7.500688
O 5.280897 1.238956 3.041703
O 5.375650 7.385811 5.350922
O 5.420772 5.298163 7.212920
O 7.084714 3.240887 3.042190
O 7.130711 1.151898 1.182786
O 7.223147 7.300221 7.211715
O 7.385100 7.429606 3.333086
O 7.268702 5.513422 5.348180
O 7.385375 0.898718 5.134602
O 7.430813 3.378753 7.322262
O 7.432973 5.249206 0.884514
