50

Na 0.673455 4.042246 1.665825
Na 0.799262 9.167180 1.612250
Na 2.380569 1.282550 0.031534
Na 2.376186 1.260725 3.316174
Na 2.337801 6.616309 3.260077
Na 6.643274 3.895927 6.595584
Na 6.600506 9.229686 3.367040
Na 6.604889 9.251511 6.651680
Na 8.181813 1.345056 4.947757
Na 8.307620 6.469990 5.001332
Fe 3.166942 4.190470 5.057909
Fe 3.127372 9.253239 5.033846
Fe 5.853703 1.258997 1.698340
Fe 5.814132 6.321765 1.722402
P 3.724577 3.742407 1.675031
P 3.798150 8.930636 1.677826
P 5.182924 1.581600 5.013333
P 5.256497 6.769829 5.010538
C 0.647868 3.802254 5.006735
C 0.486137 9.061384 4.968197
C 8.494938 1.450852 1.632690
C 8.333207 6.709982 1.671229
O 0.805522 1.491941 1.669681
O 0.612851 6.787491 1.783902
O 1.213110 4.975504 4.916897
O 1.055124 10.243659 5.021245
O 1.479964 2.782116 4.988257
O 1.225728 8.006347 4.895303
O 2.853027 4.036110 0.411021
O 2.896450 4.174197 2.923718
O 2.900537 9.263133 0.466330
O 2.906419 9.228401 2.915346
O 3.858844 0.787001 5.012199
O 3.904100 6.009838 4.936896
O 3.993767 2.220068 1.733002
O 4.187543 7.401936 1.720995
O 4.793532 3.110300 5.056501
O 4.987307 8.292168 5.068509
O 5.076974 4.502398 1.601390
O 5.122230 9.725235 1.676692
O 6.080538 1.249103 3.801837
O 6.074655 1.283835 6.250853
O 6.128048 6.476125 3.746528
O 6.084624 6.338039 6.259225
O 7.755346 2.505889 1.559796
O 7.501110 7.730120 1.652750
O 7.925951 0.268577 1.685738
O 7.767965 5.536732 1.581390
O 8.368224 3.724745 5.119409
O 8.175553 9.020295 5.005188
