64

Na 3.394694 6.897651 8.259614
Na 0.091904 7.003746 8.116883
Na 3.584419 1.656371 8.029199
Na 6.887306 1.550288 7.886437
Na 0.091848 9.038575 2.734967
Na 3.394729 9.144741 2.877607
Na 3.584475 3.691147 2.647348
Na 6.887236 3.797346 2.504441
Sr 5.243745 9.869268 10.068476
Sr 1.751119 4.521849 6.077833
Sr 5.243647 6.173096 4.686272
Sr 1.751021 0.825656 0.695671
Li 6.726248 5.299386 10.368630
Li 3.233797 10.646878 5.777557
Li 6.726388 0.048126 4.986494
Li 3.233657 5.395628 0.395399
V 5.170855 3.128873 10.484289
V 1.678494 8.476365 5.661822
V 5.171134 2.218493 5.102437
V 1.678298 7.566092 0.279851
P 1.730093 3.818104 9.820437
P 1.767834 9.789569 8.712351
P 5.260314 4.442227 7.433878
P 5.222803 9.165470 6.325891
P 1.730170 1.529432 4.438301
P 1.768128 6.252933 3.330150
P 5.260342 0.905430 2.051721
P 5.222664 6.876883 0.943637
O 2.995231 3.437200 10.693177
O 0.471620 3.383053 10.652521
O 1.691912 5.391224 9.719210
O 5.244646 1.603153 9.582224
O 2.990265 10.510312 9.294643
O 0.511114 10.498463 9.233223
O 1.742967 8.284040 9.130881
O 5.330145 4.544845 9.002862
O 1.773388 3.139450 8.439913
O 5.266063 8.487041 7.706129
O 1.837686 9.892326 7.143305
O 5.235544 2.936516 7.015292
O 4.003782 5.151025 6.912989
O 6.482898 5.162841 6.851559
O 1.752125 6.950613 6.563793
O 5.184720 0.043914 6.426718
O 6.487906 8.784619 5.452893
O 3.964281 8.730675 5.493699
O 2.995266 1.910325 5.311222
O 0.471620 1.964334 5.270569
O 1.691996 10.651115 4.337443
O 5.244723 3.744204 4.200462
O 2.990167 5.532135 3.912502
O 0.510897 5.543793 3.851180
O 1.742988 7.758333 3.748888
O 5.330264 0.802675 3.620807
O 1.773374 2.207980 3.058007
O 5.266000 7.555506 2.324158
O 1.837603 6.150102 1.761282
O 5.235482 2.410969 1.633203
O 6.482807 0.184750 1.469386
O 4.003670 0.196526 1.530925
O 1.752069 9.091792 1.181891
O 5.184546 5.303752 1.044886
O 6.487823 7.257861 0.070809
O 3.964239 7.311882 0.111607
