34

V 1.250820 1.719308 2.020427
V 3.159516 4.342897 5.103509
V 5.654360 7.772173 9.133386
P 0.315766 5.792329 5.334379
P 4.042945 2.375785 7.485966
P 6.593243 6.885840 4.870149
P 2.267645 5.146041 9.367004
P 4.644779 9.687027 6.727519
P 8.513883 6.371085 8.823312
W 7.559060 10.390268 12.210013
O 1.225197 2.718751 4.944114
O 2.437349 5.094353 3.562332
O 0.543053 7.230837 4.679323
O 4.480646 3.380081 4.647106
O 1.897491 5.313582 5.583770
O 0.010378 5.870965 6.520544
O 2.514614 1.773576 7.996446
O 3.882827 3.642488 6.641026
O 5.066979 5.954029 5.296647
O 1.928844 3.739522 8.957219
O 0.677822 5.708610 8.800395
O 3.203764 9.136438 5.773647
O 5.618914 2.936146 8.441066
O 8.139795 6.387003 5.411288
O 6.871758 8.376145 5.231111
O 3.725806 6.173848 8.925947
O 4.958925 8.474902 7.589299
O 6.274185 10.307324 6.223155
O 8.748353 6.204045 7.690800
O 6.902090 6.776039 8.661866
O 4.342815 8.741161 9.570382
O 8.246097 4.874544 9.525673
O 6.345596 7.012784 10.662359
O 7.590061 9.370637 9.292144
