19

Li 1.621146 0.956813 2.980904
Li 1.665765 3.774859 2.440002
Li 4.706245 3.574226 2.366558
Li 6.394519 5.899470 2.541859
Mn 0.042326 4.958028 5.491135
Mn 1.589013 2.357183 0.190770
Mn 4.753515 1.955699 5.148437
Mn 3.184048 4.632720 5.374977
Mn 6.398704 4.247101 5.317805
O 0.082104 1.688192 4.346135
O 1.680630 0.451319 1.100351
O 3.117041 1.362252 4.253496
O 0.120292 3.359137 1.300727
O 1.735296 4.194497 4.244881
O 3.088102 3.061270 1.202051
O 4.593270 3.661858 4.265331
O 6.145324 2.603079 1.123631
O 4.844102 5.170616 1.226999
O 6.541074 5.893883 4.446126
