16

Li 10.567594 14.657857 19.640247
Li 0.000053 2.931172 3.458194
Li 5.283808 4.397854 8.358106
Li 5.283829 7.328940 10.485518
Fe -0.000063 2.930999 2.127295
Fe 5.283966 4.398003 7.027576
Fe 5.283681 7.328852 9.154629
Te 0.000021 0.000000 0.000018
O 0.258379 0.357659 1.049982
O 10.368257 11.436937 16.574463
O 5.061391 9.960966 11.651473
O 10.309321 14.300298 19.921116
O 5.417879 7.514284 10.019632
O 0.199306 3.220865 4.396455
O 5.506235 4.696912 9.319525
O 5.149810 7.143700 10.951469
