34

Li 0.010222 5.194044 0.217204
Li 0.001115 0.039875 5.197836
Li 2.375836 -0.155398 9.456353
Li 1.202497 1.476635 4.492345
Li 4.822641 -1.409747 9.435045
Li 4.013391 -0.266857 7.318957
Li 1.160049 3.625068 4.493401
Li 2.009494 2.491954 2.374638
Li 4.826044 0.774814 9.430351
Li 3.650242 2.372451 4.484161
Ti 1.906348 2.435110 9.670319
Ti 3.917466 -0.290170 4.720507
Fe 0.982406 3.832469 7.107979
Fe 3.930127 2.324787 7.126192
Fe 4.948304 0.971985 2.195581
Co 1.004576 1.271095 7.130481
Co 2.030897 -0.131127 2.203701
Co 4.970517 -1.595396 2.193740
O 5.904124 -2.912377 8.235638
O 5.988670 2.212633 3.202905
O 2.083147 -0.080643 5.784267
O 1.073178 1.264634 0.870743
O 0.130175 2.571665 8.471481
O 3.058284 -1.400025 3.539703
O 2.981366 1.196905 8.392583
O 2.066082 2.462462 5.941206
O 3.101163 1.061179 3.440323
O 4.021983 -0.228607 1.037846
O 4.918434 -1.531337 5.839635
O 1.008207 3.763401 0.884542
O 2.948626 3.615279 8.340984
O 5.867267 -0.312227 3.444391
O 4.947490 1.028380 5.854697
O 3.955574 2.302529 0.900866
