36

Fe 0.140218 7.534751 9.563469
Fe 0.606620 5.137729 6.449552
Fe 4.307005 5.963831 6.982467
Fe 3.726740 8.335443 10.079998
Fe 7.970008 6.781587 7.509998
P 2.091834 2.981066 5.580173
P 2.091834 8.243502 5.218212
P 2.091834 5.183327 9.191951
P 6.432651 6.775969 4.750309
P 6.432651 3.635980 8.702481
P 6.432651 8.903188 8.413002
W 4.919152 3.599346 3.889539
O 0.579776 1.132695 2.844653
O 0.579776 4.054956 2.314307
O 0.579776 2.704096 4.634806
O 1.964412 1.693907 6.471608
O 3.702419 3.258850 5.098784
O 2.369600 4.296738 6.144983
O 1.964412 8.075991 3.964795
O 2.369600 6.929967 5.993628
O 4.862255 7.091218 4.020669
O 2.369600 5.367217 7.971726
O 6.581888 5.336657 4.478020
O 4.862255 2.522490 8.318776
O 3.702419 1.907885 3.185317
O 1.964412 6.552650 9.498871
O 6.248375 6.522889 5.998841
O 3.702419 4.816393 2.858814
O 6.248375 5.017226 7.996669
O 6.581888 3.867558 9.993184
O 6.248375 7.651595 7.790656
O 4.862255 8.649653 8.847842
O 6.581888 10.210880 7.459075
O 8.003897 9.290181 9.305007
O 8.003897 7.818605 11.606163
O 8.003897 10.762132 11.176756
