28

Li 0.001370 10.396212 6.057672
Li 0.001370 10.396212 3.031990
Li 2.370625 5.195902 3.030815
Li 2.370625 5.195902 6.058848
Fe 2.249436 2.264153 4.544831
Fe 2.489842 8.109195 1.514944
Fe 4.617923 2.915307 1.514944
Co 0.115903 7.485085 4.544831
P 0.393012 6.190875 1.514944
P 1.979580 0.975286 1.514944
P 2.760806 9.399816 4.544831
P 4.350798 4.205256 4.544831
O 0.977566 4.743373 1.514944
O 1.028767 6.921793 0.277380
O 1.028767 6.921793 2.752507
O 1.147244 4.182230 4.544831
O 1.223016 9.380170 4.544831
O 1.341569 1.716130 0.279956
O 1.341569 1.716130 2.749932
O 1.392111 9.940425 1.514944
O 3.349144 0.439698 4.544831
O 3.400069 8.661349 3.309710
O 3.400069 8.661349 5.779953
O 3.517451 0.999488 1.514944
O 3.594807 6.198493 1.514944
O 3.711701 3.464490 3.309800
O 3.711701 3.464490 5.779862
O 3.763499 5.643792 4.544831
