22

Li 2.647758 0.473518 7.272418
Li 4.682061 3.764234 4.327793
Li 2.233128 2.661364 1.448916
Li 0.198874 5.952106 -1.495697
V 2.472692 1.437310 4.348968
V 0.023798 4.988289 1.427737
C 0.149602 1.428793 6.257629
C 2.273593 4.795549 3.246379
C 4.722413 1.630094 2.530306
C 2.598423 4.996857 -0.480957
O 4.511863 0.753749 7.261946
O 1.444900 1.534762 6.164961
O 4.309982 2.025488 5.339081
O 2.788921 3.694121 3.838687
O 0.609429 0.730129 3.168454
O 0.995055 5.015796 3.294943
O 3.443939 1.409839 2.481747
O 3.058328 5.695449 2.608230
O 0.340008 2.731484 1.938050
O 1.861078 4.400117 0.437624
O 3.893784 4.890845 -0.388227
O 2.062999 5.671843 -1.485188
