69

Li 4.100412 1.941449 1.184879
Li 4.978501 9.434462 2.423843
Li 3.193087 1.244060 3.950444
Li 3.768724 4.024633 3.356439
Li 1.425992 -0.085218 -0.249922
Li 3.845495 10.799073 -2.239989
Li 2.095841 2.746492 -0.806160
Li 2.363867 7.413923 0.917490
Li 1.447788 6.764232 3.688228
Li 1.925732 9.612589 3.111229
Li 0.311639 8.141832 -1.051498
Li 0.590009 12.921646 0.756618
Mn 4.650915 -2.164015 6.481794
Mn 4.386394 -0.047185 -0.998758
Mn 4.737932 4.575911 0.688469
Mn 3.554792 -0.785908 1.676234
Mn 4.341590 6.765051 2.898849
Mn 2.975756 3.316227 6.234431
Mn 3.472035 6.073081 5.747393
Mn 4.040112 8.805029 5.301250
Mn 2.585872 5.379853 -1.235751
Mn 2.250333 0.658219 6.720875
Mn 2.945100 10.123449 0.395828
Mn 1.244431 1.930593 1.942851
Mn 1.725240 4.729969 1.421638
Mn 2.594076 -1.351930 4.379959
Mn 0.825475 4.055488 4.127184
Mn 1.153292 8.784952 5.958299
Mn 1.710536 11.500459 5.497932
Mn 5.242420 0.573007 6.010383
Mn 0.825979 10.880553 -1.511111
Mn 0.564274 6.125332 6.473844
Mn 5.220933 7.419886 0.196593
O 4.970276 -1.669197 0.257566
O 4.906719 0.162270 2.322800
O 4.523281 2.392778 4.804991
O 3.670654 -0.309136 5.310816
O 5.164227 5.116723 4.200922
O 3.994353 6.079680 -0.531183
O 3.554745 1.426944 7.501842
O 4.657835 8.966486 -0.979269
O 2.759878 0.819072 0.575575
O 4.209298 4.354487 6.767478
O 4.911697 6.878426 6.368514
O 3.158807 -1.256210 7.892781
O 3.118892 3.869632 0.021893
O 3.710302 8.453971 1.506411
O 2.101528 0.214939 3.006094
O 3.194289 5.631740 2.128903
O 4.075300 11.182911 1.063579
O 2.402801 3.196721 2.614660
O 2.730702 7.739499 4.634121
O 1.017910 -0.392794 6.154609
O 2.065825 5.217931 5.061349
O 3.417222 10.568858 3.955343
O 1.693057 2.528544 5.495467
O 2.301789 11.725248 -0.769927
O 1.804771 6.907823 7.336005
O 0.566147 3.520369 0.737283
O 1.056156 6.364740 0.369281
O 2.252589 9.890657 6.672856
O 0.698822 1.555299 8.109125
O 1.555294 4.285181 7.646740
O 1.491799 9.396176 -0.220172
O 0.244751 5.764421 2.779109
O 1.401777 11.282736 1.986460
O 0.638265 8.727108 2.320612
O 0.405595 10.611847 4.703836
O 0.138509 12.468836 7.145041
