14

Li 4.190957 4.138449 1.654920
Li 0.977342 0.973206 4.946311
Co 4.207852 4.160472 4.945274
Co 0.960328 0.951123 1.654015
Si 1.624726 3.530129 0.009327
Si 3.543548 1.581480 3.300306
O 1.012295 4.267021 1.343254
O 0.897213 4.152554 5.257387
O 3.249431 3.804811 6.497851
O 3.842863 3.201988 3.395374
O 1.325322 1.909659 0.104188
O 1.918863 1.306736 3.206483
O 4.270952 0.959092 1.965686
O 4.156077 0.844577 4.634219
