12

Li 2.813681 0.000000 1.117538
Li 2.813681 2.495929 -1.436649
Cu 0.000000 2.495929 2.554187
Cu 0.000000 0.000000 0.000000
F 0.823823 1.556731 3.679602
F 0.823823 0.939198 1.125415
F 1.830767 3.343367 2.296620
F 3.796596 0.847438 2.492642
F 1.830767 4.144421 -0.257567
F 3.796596 1.648491 -0.061544
F 4.803539 4.052660 1.109661
F 4.803539 3.435128 -1.444526
