38

Li 2.574862 4.979635 5.229301
Li 1.110808 4.307142 1.494879
Li 6.800986 -0.672971 5.048655
Li 5.336932 -1.345464 1.314233
Cu 5.037660 3.966341 7.457645
Cu 1.034981 2.127767 4.194564
Cu 6.876812 1.506404 2.348970
Cu 2.874133 -0.332170 -0.914111
S 1.961524 2.997648 6.978832
S 3.616607 3.757888 2.665287
S 7.529614 3.458622 4.611368
S 0.382179 0.175549 1.932166
S 4.295186 -0.123717 3.878247
S 5.950270 0.636523 -0.435298
O 1.157480 6.324591 8.874674
O 0.306542 5.933725 5.026416
O 1.039151 3.064097 8.190657
O 3.124336 3.932483 6.812566
O 0.991617 3.542428 6.056063
O 3.993446 4.421111 3.635890
O 6.295003 3.741277 5.650535
O 2.740962 1.622090 6.658190
O 2.007784 3.419611 3.013624
O 3.484275 4.687396 1.587007
O 0.670975 1.157959 2.688487
O 3.145072 1.081577 4.267712
O 4.766721 2.552594 2.275814
O 7.240818 2.476212 3.855047
O 4.427519 -1.053225 4.956527
O 5.904010 0.214560 3.529910
O 5.170832 2.012081 -0.114648
O 1.616791 -0.107106 0.892998
O 3.918347 -0.786940 2.907644
O 6.920177 0.091743 0.487471
O 4.787458 -0.298312 -0.269032
O 6.872643 0.570074 -1.647123
O 7.605251 -2.299554 1.517118
O 6.754314 -2.690420 -2.331140
