22

Li 1.449367 3.406628 1.239511
Li 7.425851 0.219748 4.257042
Cr 3.027461 4.740363 4.143965
Cr 5.847757 1.553483 1.352588
C 0.651778 4.760032 3.734007
C 8.223440 1.573152 1.762545
S 3.749389 1.557983 3.892843
S 5.125829 4.744863 1.603709
O 0.542125 1.772677 1.606196
O 1.170100 4.721497 4.941515
O 1.616301 4.610931 2.793133
O 2.895682 0.381999 4.169285
O 2.928840 2.724260 4.340354
O 3.849315 4.693898 0.884455
O 4.079254 1.671703 2.434550
O 4.795964 4.858583 3.062003
O 5.025903 1.507018 4.612098
O 5.946378 5.911140 1.156198
O 5.979536 3.568879 1.327268
O 7.258917 1.424051 2.703420
O 7.705118 1.534617 0.555038
O 8.333093 4.959557 3.890356
