40

V 1.093039 0.438560 2.486680
V 1.093039 3.657761 2.486680
V 2.798940 4.534881 7.478208
V 2.798940 7.754082 7.478208
V 4.985017 0.438560 2.504849
V 4.985017 3.657761 2.504849
V 6.690918 4.534881 7.496377
V 6.690918 7.754082 7.496377
F 0.854040 7.687517 7.618221
F 0.854040 4.601447 7.618221
F 0.993832 4.694114 3.901578
F 0.993832 7.594850 3.901578
F 1.017425 2.048161 3.669163
F 1.164822 2.048161 1.299624
F 1.186400 4.683332 1.061908
F 1.186400 7.605631 1.061908
F 2.705579 0.587011 6.053436
F 2.705579 3.509310 6.053436
F 2.727156 6.144482 6.291153
F 2.874553 6.144482 8.660691
F 2.898146 0.597793 8.893107
F 2.898146 3.498529 8.893107
F 3.037938 0.505126 2.626692
F 3.037938 3.591196 2.626692
F 4.746018 4.601447 7.356365
F 4.746018 7.687517 7.356365
F 4.885811 4.694114 1.089950
F 4.885811 7.594850 1.089950
F 4.909404 2.048161 1.322366
F 5.056801 2.048161 3.691904
F 5.078378 4.683332 3.929621
F 5.078378 7.605631 3.929621
F 6.597557 0.587011 8.921149
F 6.597557 3.509310 8.921149
F 6.619134 6.144482 8.683433
F 6.766531 6.144482 6.313894
F 6.790124 0.597793 6.081479
F 6.790124 3.498529 6.081479
F 6.929916 0.505126 2.364836
F 6.929916 3.591196 2.364836
