34

Bi 3.188395 0.447982 3.808106
Bi 1.313641 4.209771 7.251086
Bi 7.832173 5.559968 8.266667
Bi 5.957419 9.321758 11.709648
S 0.315018 2.429822 2.626880
S 2.242837 7.339917 5.765453
S 4.202465 2.429822 6.538303
S 4.943349 7.339917 8.979451
S 6.902977 2.429822 9.752300
S 8.830795 7.339917 12.890874
O 0.215192 4.018948 3.060503
O 1.083550 2.542047 1.761084
O 1.228265 7.227692 4.725561
O 1.306983 1.897049 3.436433
O 1.869020 8.508280 6.506199
O 1.850994 5.750791 6.029908
O 3.985544 7.872690 5.784067
O 1.349264 8.508280 8.721769
O 2.524418 2.542047 6.411153
O 4.454460 1.897049 5.524450
O 4.746641 8.508280 8.323724
O 3.747726 5.750791 8.483767
O 5.398088 4.018948 7.033987
O 4.399173 1.261449 7.194026
O 4.691354 7.872690 9.993303
O 6.621395 7.227692 9.106600
O 7.796550 1.261449 6.795980
O 5.160269 1.897049 9.733687
O 7.294820 4.018948 9.487846
O 7.276794 1.261449 9.011550
O 7.838831 7.872690 12.081321
O 7.917549 2.542047 10.792193
O 8.062264 7.227692 13.756670
O 8.930622 5.750791 12.457251
