32

Li 0.000000 0.304433 0.197162
Li 2.372439 2.374267 1.364810
Li 2.372439 4.973900 -0.384596
Li 4.744878 0.304433 0.197162
Li 7.117317 1.187888 4.375200
Li 7.117317 2.192778 1.592979
Cr 2.372439 1.689960 4.123636
Cr 7.117317 4.870437 0.125123
C 9.334191 0.755594 2.970593
C 2.372439 4.621424 2.615613
C 4.900444 0.755594 2.970593
C 4.589313 3.360788 -0.304671
C 7.117317 4.225177 3.113777
C 0.155566 3.360788 -0.304671
O 8.956907 0.584107 4.106811
O 1.063441 1.169152 2.694089
O 0.975053 2.268213 -0.174574
O 2.372439 3.552254 3.372502
O 2.372439 5.856790 3.182844
O 2.372439 4.473920 1.419857
O 3.769825 2.268213 -0.174574
O 3.681437 1.169152 2.694089
O 5.277728 0.584107 4.106811
O 4.212028 4.498888 -0.814873
O 5.808319 3.202813 0.137359
O 5.719932 0.542555 1.994932
O 7.117317 2.922484 3.370331
O 7.117317 4.677732 1.957545
O 7.117317 5.216074 3.988357
O 8.514703 0.542555 1.994932
O 8.426315 3.202813 0.137359
O 0.532850 4.498888 -0.814873
