12

V 0.000000 3.293618 2.893776
V 3.293618 0.000000 1.758014
F 0.000000 3.293618 1.153351
F 0.246494 1.595376 3.336068
F 1.595376 6.340742 1.315721
F 1.698242 3.540113 3.336068
F 3.047124 1.698242 1.315721
F 3.293618 0.000000 3.498439
F 3.540113 4.888994 1.315721
F 4.888994 3.047124 3.336068
F 4.991860 0.246494 1.315721
F 6.340742 4.991860 3.336068
