24

Li 3.547889 3.352367 6.677856
Li 3.547969 6.677875 6.677899
Li 1.230001 1.671682 5.015076
Li 3.549081 5.015104 5.014973
Li 3.595530 1.671683 5.015009
Li 3.547908 3.352307 3.352093
Li 3.547894 6.677929 3.352069
Li 1.182365 0.008897 3.334383
Li 1.182407 3.334586 3.334453
Li 1.135740 5.015123 1.671643
Li 1.183500 1.671788 1.671653
Li 3.501241 5.015144 1.671623
Li 1.182464 0.008824 0.008887
Li 1.182384 3.334700 0.008836
Cu 1.183704 5.015117 5.014785
Cu 3.549157 1.671696 1.671620
O 0.059062 1.671758 6.629382
O 2.424520 3.285964 5.015011
O 2.424586 0.057373 5.015014
O 0.059015 1.671738 3.400737
O 4.671996 5.015141 3.286043
O 2.306490 6.629606 1.671611
O 2.306486 3.400708 1.671648
O 4.672015 5.015141 0.057117
