20

Li 4.356511 0.443362 0.400183
Li 5.344155 4.269932 1.236086
Ni 0.055637 7.632415 0.014777
Ni 3.177919 3.805845 3.709898
C 0.743485 1.997975 3.907415
C 4.047241 1.847078 2.776983
C 2.490070 5.824545 -0.182741
C 5.653425 5.673648 -1.140714
O 0.462845 0.919372 3.268026
O 0.984042 3.129201 3.432938
O 2.541962 5.622058 3.411614
O 0.691593 1.795488 0.313060
O 2.249513 6.955771 0.291736
O 2.770711 4.745942 0.456648
O 3.838314 2.982015 2.197954
O 4.383201 0.773671 2.248073
O 5.854462 5.761184 2.449261
O 3.846204 1.934614 -0.812992
O 5.317465 4.600241 -0.611804
O 5.862352 6.808585 -0.561685
