24

Mn 0.968598 3.672114 1.877193
Mn 0.968627 1.193514 1.877080
Mn 3.830671 2.241013 1.877142
Mn 1.937306 -0.129772 6.326763
Mn 4.799407 0.917788 6.326932
Mn 4.799379 -1.560849 6.326757
Cr 1.922770 2.368850 4.365606
Cr 3.845241 -0.257681 8.814801
O 0.970588 3.669596 5.346159
O 0.239453 2.481629 3.012023
O 1.922615 2.368933 0.892875
O 5.767977 -2.884105 2.822842
O 5.767959 2.111185 7.273055
O 0.970542 1.195779 5.346011
O 2.764322 3.405766 3.012085
O 2.764305 1.219175 3.011991
O 1.941211 -0.129971 0.896036
O 3.826985 2.241322 5.346224
O 3.003481 0.892306 7.461480
O 3.003504 -1.294750 7.461369
O 3.845408 -0.257565 5.342506
O 4.797360 0.915400 0.896116
O 5.528939 -0.370456 7.461449
O 4.797417 -1.558160 0.895968
