12

Li 5.241421 3.675899 3.690817
Mn 2.687806 3.219371 1.722381
Mn 2.698044 1.856310 4.365867
Mn 2.796948 6.128155 1.579834
O 1.775779 1.696642 0.899709
O 3.786210 2.135078 2.812648
F 1.203731 2.808725 3.337855
F 1.560981 4.466185 0.922056
F 1.584465 6.125332 3.108048
F 3.850167 4.729459 2.407336
F 3.936522 3.284490 5.122541
F 3.916410 6.298942 5.216194
