70

Li 5.948811 2.159504 25.687746
Li 1.504440 3.128387 5.583441
Li 3.914732 -0.099190 2.498015
Li 1.190136 3.543377 8.941224
Li 3.556277 0.271178 5.980092
Li 3.130034 0.899781 11.125592
Li 5.073122 -1.754581 13.310878
Li 2.677768 1.485692 16.283318
Li 0.315917 4.773816 19.301852
Li 4.750823 -1.355647 16.673359
Li 2.353456 1.901543 19.795286
Li 3.119344 3.491353 22.485880
Ti 0.716192 4.141691 1.912005
Ti 2.016607 2.592451 0.309485
Ti 0.759023 1.565601 2.751424
Ti 3.723602 2.664237 3.411947
Ti 4.287097 1.835815 8.811261
Ti 1.377992 0.741020 8.211495
Ti 1.953897 2.491285 12.586583
Ti 0.726900 4.135503 14.087318
Ti 5.532600 -2.358429 8.182195
Ti 4.320875 -0.698693 9.681059
Ti 4.885027 1.037027 14.051452
Ti 1.963529 -0.044009 13.438030
Ti 0.194022 2.362945 21.875571
Ti 5.516024 0.200431 19.516396
Ti 2.541843 -0.874728 18.868865
Ti 5.531560 -2.372787 20.367017
Ti 4.272195 -0.809620 21.983601
Ti 3.162437 0.864152 23.413653
O 0.049314 2.785451 1.006794
O 2.730081 3.776193 1.537936
O 0.341999 4.726132 5.281178
O 2.723257 1.455723 2.343460
O 1.651574 2.915049 3.675989
O 1.435223 0.354478 4.582636
O 4.728601 1.556902 5.280054
O 3.657259 3.057628 6.957166
O 0.330700 1.849801 6.263374
O 2.328730 1.998795 9.092695
O 5.805381 -2.762013 4.904383
O 3.421601 0.503712 7.868451
O 4.737779 -1.296009 6.240048
O 1.022555 3.769341 10.847245
O 5.101874 0.618995 10.477407
O 2.329794 -0.406469 9.897872
O 1.168894 1.171661 11.775641
O 3.946669 2.196711 12.370690
O 1.524164 3.068789 16.029653
O 3.937964 -0.213744 13.171919
O 2.840635 1.279495 14.392342
O 5.247043 -1.979828 11.411032
O 0.460942 4.534032 17.373640
O 5.931662 -0.070737 16.003265
O 2.603244 -1.280331 15.306688
O 3.536804 3.181077 18.998109
O 0.240390 1.975136 18.268757
O 4.825585 1.422588 17.686142
O 1.530325 0.213185 16.997916
O 4.608481 -1.143079 18.595950
O 2.142141 2.069133 21.642792
O 1.058173 3.566348 23.017708
O 3.541202 0.325494 19.920361
O 5.931548 -2.945379 16.980451
O 3.814927 2.189931 24.400504
O 1.134955 1.267743 23.759318
O 5.132049 0.508768 22.982192
O 2.463920 -0.403244 22.343174
O 5.217734 -1.790261 23.732539
O 4.100120 -0.267292 25.093634
