16

V 3.784663 4.410749 3.474442
V 2.416121 1.342125 4.214839
V 1.417577 3.026651 7.939558
V 5.205219 2.674776 8.387070
O 2.229677 4.675206 2.945993
O 2.963077 2.757087 8.478606
O 0.507499 1.424808 4.278736
F 4.789775 6.026729 7.110037
F 4.817325 6.043400 3.597881
F 5.078859 3.812115 1.649982
F 2.819919 4.950210 5.410818
F 2.190741 4.726985 7.996200
F 3.101184 2.704439 3.420730
F 2.460651 2.478682 6.013198
F 0.113802 3.629616 9.754099
F 0.378774 1.394293 7.800227
