28

Li 1.874833 2.457124 8.561719
Li 5.930933 2.286622 9.482971
Li 0.078611 0.001081 4.710328
Li 4.134710 -0.184038 3.788635
Ti 2.177426 2.450057 4.710830
Ti 3.832118 -0.164571 9.477429
Mn 1.007999 3.750161 2.064352
Mn 1.027962 1.236724 2.071477
Mn 3.932970 2.373105 2.046740
Mn 2.076574 -0.087603 6.813529
Mn 5.001545 1.033006 6.830823
Mn 4.981581 -1.478676 6.837951
O 1.245694 3.784958 5.615987
O 0.343127 2.525644 3.269197
O 2.018858 2.451553 1.080118
O 5.919875 2.282398 2.898156
O 0.089668 -0.004111 7.665161
O 1.240268 1.197354 5.608969
O 3.090588 3.495932 3.284407
O 3.093196 1.317571 3.288626
O 1.865957 -0.085455 0.945722
O 4.143586 2.356792 5.718559
O 2.918956 0.961365 8.051105
O 2.916347 -1.216773 8.055324
O 3.990686 -0.176977 5.846699
O 4.763849 1.088652 0.842834
O 5.666417 -0.249802 8.035596
O 4.769276 -1.499432 0.835816
