27

Li 2.913197 3.588734 2.278777
Li 8.738106 3.198035 4.443277
Li 5.826141 -0.390808 2.196612
V 0.058609 5.002652 4.521449
V 0.064909 2.341008 2.369420
V 2.927913 1.122407 4.521534
V 2.675747 6.173939 2.369259
V 5.997607 2.250905 2.369135
V 5.751593 4.640701 4.521281
O 0.980934 6.101834 3.497661
O 1.125931 1.261550 3.497793
O 6.630751 3.402163 3.497386
F 1.875437 4.884865 1.210442
F 0.947982 3.637616 3.378014
F 3.799765 4.847119 3.378041
F 2.015444 2.361732 1.210641
F 4.847408 3.518992 1.210085
F 1.986118 -0.125277 1.097671
F 3.990621 2.281026 3.377879
F 3.873185 -0.218273 3.389604
F 4.867533 1.046094 1.202487
F 4.719329 -1.625125 1.202991
F 6.849387 0.788535 3.389601
F 7.753964 1.970556 1.097568
F 6.754592 -1.741467 3.389846
F 7.890179 -0.592620 1.203024
F 7.736522 -3.015698 1.097521
