33

Li 6.663616 3.606550 5.207388
Li 6.655159 1.388007 -0.646124
Li 2.231231 1.942526 3.653386
Li 2.225615 6.369128 7.801731
Li 4.478514 3.887879 3.553568
Li 4.486964 -0.535934 -0.531328
Cr 2.228423 4.155830 5.727560
Cr 2.225696 1.953306 -0.100688
Cr 2.231158 -0.284010 1.617385
Fe 4.459407 -0.523386 3.255107
Fe 4.448009 3.880070 -0.199303
Fe 4.454567 1.666726 1.512697
Fe 0.008838 4.431590 4.089316
Fe 6.682723 1.375451 3.132536
Fe 0.002286 0.002570 0.004008
O 0.071171 6.572102 4.074099
O 0.144014 4.290940 5.942391
O 0.131205 2.055898 7.672715
O 2.353786 6.240912 5.806025
O 2.302850 4.070644 7.434289
O 4.592538 5.955987 7.458740
O 2.154003 4.241009 4.020819
O 2.103068 2.070748 5.649085
O 4.312839 4.020713 5.512716
O 2.364689 1.789266 1.704508
O 4.574086 3.738626 1.627981
O 4.510596 1.606200 3.211766
O 2.092164 -0.119964 -0.187809
O 4.385682 1.739551 -0.184092
O 4.325648 -0.386602 1.409090
O 6.568044 3.755796 -0.432127
O 6.549585 1.538442 1.302219
O 6.631527 -0.754134 3.175880
