20

Li 1.085513 4.316751 -0.105412
Li 2.018178 1.073993 4.059812
Li 2.524015 2.020776 1.297956
Li 3.029853 2.967559 -1.463900
Li 3.962517 -0.275200 2.701324
Mn 0.507277 3.399458 2.683620
Mn 4.540754 0.642094 -0.087708
Ni 0.000000 2.498082 -1.422474
Ni 3.511814 3.798074 2.642814
Ni 1.536217 0.243477 -0.046902
O 0.255133 0.330018 5.569319
O 1.640539 3.153460 4.028373
O 0.656996 1.486736 2.646654
O 1.111258 2.233334 -0.090776
O 2.186065 4.018265 1.395245
O 2.861966 0.023287 1.200666
O 3.936773 1.808218 2.686688
O 4.391035 2.554815 -0.050742
O 3.407492 0.888092 -1.432461
O 4.792898 3.711534 -2.973408
