12

V 1.901801 0.987644 4.311990
V 2.577466 0.047639 1.456149
V 3.836202 -1.703555 3.625181
Fe 4.508902 -2.639435 0.779566
O 0.844235 2.458962 4.576665
O 1.578761 1.437068 2.269147
O 2.292961 0.443450 5.864739
O 2.862149 -0.348421 3.482190
O 3.536433 -1.286506 1.506424
O 4.042606 -1.990710 5.228223
O 4.830913 -3.087427 2.870347
O 5.525312 -4.053497 0.307896
