70

Li 5.055392 0.927229 -3.368673
Li 5.707994 0.889223 -0.327376
Li 3.880469 -1.579195 3.287124
Li 1.572660 3.743611 12.448044
Li 2.753672 1.095905 7.880765
Li 4.439030 -1.576229 6.380028
Li 3.217487 1.006979 11.172847
Li 2.028616 3.656453 15.859892
Li 0.318989 1.315761 19.092177
Li 0.928550 1.153740 22.306191
Mn 2.403285 2.386569 -0.269662
Mn 2.402089 -0.174938 0.694107
Mn 1.188668 2.471121 5.408251
Mn 4.181004 0.978494 3.833990
Mn 5.388616 -1.658935 -0.888293
Mn 1.189511 -0.080088 6.373792
Mn 5.974847 -2.986771 8.887508
Mn 0.609328 3.783673 19.787159
Mn 2.993190 -1.488791 10.472254
Mn 1.789851 1.145688 15.123807
Mn 3.598204 2.299850 18.216714
Mn 4.780800 -0.342872 13.555941
Mn 4.119689 1.001817 15.928521
Mn 5.401949 -1.672094 11.199226
Fe 0.626826 3.806346 7.732799
Fe 2.997643 3.583953 20.522271
Fe 1.797034 1.150141 3.048774
Fe 0.003514 2.565290 11.039001
Fe 4.777651 2.208356 12.575215
Fe 3.600678 -0.271491 19.220994
O 1.435035 3.709825 -1.193521
O 4.068150 2.399798 -2.551377
O 5.875027 0.972915 1.547157
O 1.424248 1.172799 -0.156132
O 0.719678 2.392454 2.016735
O 3.392092 1.040023 0.629313
O 2.154737 3.707584 5.315413
O 0.711132 0.071922 2.889810
O 2.923018 2.205485 3.190022
O 4.065258 -0.433493 -1.492601
O 0.222438 1.244486 5.466574
O 2.897094 -0.090016 4.069735
O 1.776231 2.565291 8.666523
O 1.247049 3.769930 10.725882
O 3.383098 -1.508899 1.581016
O 2.477120 0.983325 6.108136
O 5.477045 2.055887 3.572378
O 5.444529 -0.249126 4.477030
O 4.212821 2.410356 9.274712
O 0.939845 1.163860 12.092721
O 5.001691 0.968299 6.944287
O 0.669520 2.318934 14.246710
O 1.821004 -0.251483 9.743927
O 0.534806 0.102209 15.260638
O 3.020292 2.195062 14.989734
O 4.725473 -1.639043 8.244969
O 4.276437 -0.472178 10.340467
O 3.558313 0.966876 12.929404
O 2.421440 3.598351 17.550739
O 1.981392 2.476003 20.430036
O 2.907044 -0.020939 16.008882
O 5.693304 0.852234 13.654448
O 3.856983 -1.530638 13.465841
O 5.183479 2.099487 15.948810
O 2.611225 1.136166 18.200572
O 5.270139 -0.191966 16.755423
O 0.027227 1.326426 17.318860
O 4.781212 0.989629 18.870167
O 1.874115 -0.322573 21.597839
O 4.590639 -1.660143 20.157820
