72

Mn 2.143666 4.467343 2.137883
Mn 2.127053 4.467343 6.986003
Mn 2.797570 1.489114 4.559014
Mn 2.805704 1.489114 9.397526
Fe 2.198770 4.467343 11.933211
Fe 2.705187 1.489114 14.362552
Fe 7.182924 4.467343 0.118043
Fe 7.167661 4.467343 5.002721
Co 7.127652 4.467343 9.881672
Co 7.682015 1.489114 7.506862
Co 7.615149 1.489114 2.593304
Co 7.625866 1.489114 12.238381
P 0.969226 1.489114 6.871810
P 0.948630 1.489114 2.029163
P 0.965746 1.489114 11.716397
P 3.951157 4.467343 14.150234
P 3.947203 4.467343 4.446255
P 3.963944 4.467343 9.288028
P 5.922303 1.489114 0.387324
P 5.903452 1.489114 5.260330
P 5.891729 1.489114 10.080210
P 8.906274 4.467343 2.783934
P 8.897460 4.467343 7.664590
P 8.890687 4.467343 12.489052
O 0.548852 4.467343 3.162341
O 0.532121 4.467343 8.035253
O 0.515182 4.467343 12.867909
O 1.176747 1.489114 3.539329
O 1.184121 1.489114 8.394618
O 1.157708 1.489114 13.237212
O 1.688084 0.288108 6.172281
O 1.688084 2.690121 6.172281
O 1.689632 0.301730 1.308801
O 1.689632 2.676498 1.308801
O 1.672151 0.273622 11.036243
O 1.672151 2.704607 11.036243
O 3.217007 3.267504 13.452576
O 3.217007 5.667181 13.452576
O 3.233906 3.265729 3.740384
O 3.233906 5.668956 3.740384
O 3.252127 3.267486 8.586415
O 3.252127 5.667199 8.586415
O 3.768255 4.467343 10.800924
O 3.745874 4.467343 1.125942
O 3.736291 4.467343 5.966940
O 4.426744 1.489114 0.702075
O 4.402352 1.489114 5.586447
O 4.395618 1.489114 10.439410
O 5.435003 4.467343 13.837658
O 5.441096 4.467343 4.138361
O 5.479716 4.467343 8.951199
O 6.090958 1.489114 3.720777
O 6.054508 1.489114 8.556725
O 6.133994 1.489114 13.413967
O 6.644887 0.279626 1.083345
O 6.644887 2.698603 1.083345
O 6.610803 0.286351 10.789933
O 6.610803 2.691878 10.789933
O 6.625711 0.282408 5.938937
O 6.625711 2.695821 5.938937
O 8.179776 3.272632 3.498110
O 8.179776 5.662053 3.498110
O 8.171070 3.251737 8.361612
O 8.171070 5.682948 8.361612
O 8.158805 3.274377 13.193759
O 8.158805 5.660308 13.193759
O 8.696624 4.467343 10.956823
O 8.733725 4.467343 1.271656
O 8.704867 4.467343 6.155009
O 9.332712 1.489114 6.511571
O 9.316622 1.489114 1.662711
O 9.304307 1.489114 11.379180
