12

Li 0.987868 3.888675 2.841198
Li 1.964137 1.125569 1.444287
Li 2.928190 -1.446871 0.029768
Fe 0.979481 3.827857 0.007926
Fe 1.952174 1.154404 4.263217
Co 0.008091 6.446858 1.418135
O 1.463491 5.679673 0.142884
O 2.477901 3.192846 1.361197
O 0.497404 1.937064 -0.076268
O 2.430281 3.054056 4.352831
O 0.465640 1.793669 2.912597
O 1.487308 -0.700003 4.148228
