36

Li 0.000000 0.000000 0.000000
Li 4.446425 5.935833 6.960416
Bi 2.964013 3.956862 4.639855
Bi 1.482411 1.978971 2.320561
Bi 5.928836 7.914804 9.280977
Bi 7.410438 9.892695 11.600272
S 0.749587 6.333822 5.318256
S 5.196012 9.591573 6.385069
S 2.223212 5.645998 9.373812
S 6.669637 6.225668 4.547021
S 3.696837 2.280093 7.535764
S 8.143262 5.537845 8.602577
O 0.844714 7.539669 4.420003
O 0.930503 6.440486 9.141324
O 3.988665 9.264429 9.244244
O 4.977363 2.573080 8.506093
O 2.254435 5.822533 5.537332
O 5.291138 8.277208 7.125921
O 6.700860 10.159140 5.902474
O 8.435090 5.146186 7.472900
O 2.798597 5.632880 3.008083
O 0.530939 2.751633 5.204363
O 1.647827 4.242643 9.025407
O 3.515921 6.292867 8.668865
O 5.376928 5.578799 5.251968
O 8.361910 9.120033 8.716469
O 7.245022 7.629023 4.895425
O 0.457759 6.725480 6.447932
O 6.094252 6.238787 10.912750
O 2.191989 1.712526 8.018359
O 3.601711 3.594458 6.794911
O 6.638414 6.049134 8.383501
O 4.904184 2.607237 4.676589
O 3.915486 9.298586 5.414739
O 7.962346 5.431181 4.779509
O 8.048135 4.331997 9.500830
