14

Li 0.728983 0.999159 1.174157
Li 2.961184 4.058660 4.769518
Cr 0.034411 2.551678 3.259432
Cr 2.948253 1.536421 3.901589
Cr 2.948253 4.040936 2.391782
Ni 5.196096 7.121875 8.369242
O 1.538085 2.108131 2.477362
O 1.476215 2.023330 4.572509
O 1.476215 4.355586 3.166545
O 4.189645 3.410157 3.764535
O 1.705613 4.683117 5.747608
O 4.434299 3.732373 6.348961
O 4.434299 6.077741 4.935092
O 4.379374 6.002459 7.053765
