36

V 1.381195 6.804436 -0.318371
V 1.853820 2.951002 1.491068
V 3.281186 0.419449 4.598821
V 4.956294 6.180544 -1.752860
V 6.383660 3.648991 1.354894
V 6.856286 -0.204443 3.164332
Fe 2.426416 3.757735 4.568952
Fe 4.629604 6.878513 1.321103
Fe 3.607877 -0.278520 1.524859
Fe 5.811065 2.842258 -1.722990
Cu 1.940660 6.315941 2.888027
Cu 6.296821 0.284052 -0.042065
O 0.431628 2.952338 4.407396
O 1.691138 8.379381 -0.731338
O 1.901375 5.770512 -1.665333
O 8.211096 -0.247961 0.037829
O 2.327541 6.492725 1.168309
O 2.294806 4.016625 2.732261
O 1.563754 0.177115 4.826897
O 3.969708 6.670556 3.060100
O 2.320754 3.715947 0.125631
O 3.613379 2.120780 4.413890
O 4.376343 7.222991 -0.478754
O 2.780487 1.453006 1.670190
O 5.456993 5.146987 1.175772
O 3.861138 -0.622998 3.324716
O 4.624102 4.479213 -1.567928
O 5.916727 2.884046 2.720331
O 4.267773 -0.070563 -0.214139
O 6.673727 6.422878 -1.980935
O 5.942675 2.583368 0.113700
O 5.909939 0.107268 1.677653
O 0.026385 6.847954 2.808132
O 6.336105 0.829481 -1.732160
O 6.546342 -1.779388 3.577300
O 7.805853 3.647655 -1.561435
