32

Li 0.924689 -0.002921 6.360176
Li 4.138377 6.310485 4.431907
Li 3.446948 3.186342 9.851616
Li 1.602384 3.167185 0.940609
Li 0.926211 3.165482 6.350913
Li 4.136759 3.142388 4.445583
Li 1.603183 -0.001226 0.951203
Li 3.448142 0.006077 9.864291
Fe 3.465577 4.755725 7.142452
Fe 4.119076 4.742050 1.732595
Fe 0.933382 1.600818 9.061274
Fe 1.594839 1.562210 3.651612
Si 0.879260 4.774899 9.015241
Si 1.649128 4.737464 3.605650
Si 4.175928 1.567934 1.780186
Si 3.409205 1.580828 7.189582
O 1.432918 6.131406 9.784144
O 1.103681 6.094241 4.382626
O 4.285770 4.766663 9.037263
O 1.132737 4.753694 2.028800
O 1.395651 4.759697 7.438528
O 3.299374 4.727238 3.627688
O 1.424292 3.423215 9.799293
O 1.095874 3.386168 4.381524
O 3.623033 2.918662 1.000855
O 3.957974 2.932305 6.409715
O 3.663138 1.557532 3.357984
O 1.758590 1.580326 7.168171
O 0.769868 1.586003 1.758546
O 3.921970 1.590500 8.767467
O 3.628024 0.211305 1.006523
O 3.961327 0.224789 6.416736
