71

Ba 1.432002 3.957687 12.848599
Ba 1.459961 0.883536 5.810322
Ba 4.380890 9.104130 8.387647
Ba 4.428455 6.061823 1.417361
Li 0.149036 5.030416 6.824713
Li 1.513450 3.974756 4.929983
Li 4.153683 5.864326 7.866366
Li 4.415049 9.299120 0.536513
Ti 1.413032 6.158303 9.486178
Ti 1.378526 7.609450 6.958036
Ti 1.395444 4.272991 2.221951
Ti 1.435497 0.620327 9.472367
Ti 1.474020 7.449325 0.072362
Ti 1.491173 8.904360 2.538084
Ti 2.907146 6.597929 4.709360
Ti 2.893140 8.402699 11.771960
Ti 2.907587 3.358198 9.405102
Ti 2.965499 1.536532 2.474558
Ti 4.325531 2.321810 6.834996
Ti 4.341837 2.673447 14.125424
Ti 4.388160 5.674313 11.749402
Ti 4.399125 1.117809 11.781480
Ti 4.484278 4.085803 4.562292
Ti 4.532719 9.069538 4.757336
Ti 5.847710 3.266258 9.399402
Ti 5.850051 8.382243 11.765565
Ti 0.013941 1.564274 2.440763
O 5.872204 9.960622 3.547700
O 5.879004 8.510710 5.987598
O 0.035082 4.736767 3.462423
O 0.074147 3.238569 1.211668
O 0.105847 6.742084 8.254833
O 0.197765 8.258313 1.228397
O 1.399467 7.640983 10.712734
O 1.464385 2.518677 10.436993
O 1.409702 4.334129 8.583335
O 1.447820 8.964770 12.940127
O 1.442661 5.673974 0.982502
O 1.470291 9.441706 8.232552
O 1.493344 2.507476 3.380475
O 1.476032 0.723205 1.532900
O 1.518608 6.065697 5.942496
O 1.630315 7.484643 3.575389
O 2.663910 6.906571 8.384081
O 2.758652 8.252203 1.155336
O 2.890381 4.941410 3.559926
O 2.891611 -0.003868 10.575697
O 2.897134 1.794888 8.297058
O 2.933211 5.053466 10.624087
O 2.934511 6.798278 12.899056
O 2.937617 3.280615 1.215465
O 2.959276 10.015978 3.591395
O 2.955605 8.275158 5.930789
O 3.111617 3.109697 5.740517
O 3.139182 1.854196 12.930718
O 4.308048 5.589038 5.659919
O 4.324896 7.576051 3.789084
O 4.404125 3.982937 8.266761
O 4.356507 0.661824 6.068418
O 4.378154 9.333772 12.701483
O 4.371807 7.515820 10.796250
O 4.372525 2.594249 10.503265
O 4.393872 4.390214 13.150693
O 4.411125 1.045034 1.181464
O 4.442402 2.350020 3.421939
O 5.625674 1.828806 12.888555
O 5.715151 3.237916 5.819641
O 5.799816 5.033436 10.623361
O 5.802251 6.790516 12.877870
O 5.868216 -0.013585 10.532308
O 0.014353 1.776335 8.378003
