38

Li 0.381821 2.263716 4.194021
Li 1.121575 0.319711 2.646170
Li 0.006101 3.277205 1.636213
Li 3.807302 6.512014 0.382283
Li 2.691828 2.949501 2.717950
Li 3.431582 1.005496 1.170099
Li 4.990730 3.741170 1.313895
Li 6.449479 6.066467 1.335888
Ni 0.731052 1.346928 0.049458
Ni 3.082351 1.922285 5.314662
Ni 2.270988 3.904846 0.205685
Ni 1.542415 5.884373 1.812810
Ni 1.906701 4.894610 -2.351397
Ni 6.094184 0.646291 2.209405
Ni 5.346025 2.641340 3.786003
Ni 5.720104 1.643816 -0.362941
Ni 4.579302 4.593437 -1.296803
Ni 6.860907 5.214201 3.946586
O 2.281490 0.196057 6.482953
O 2.129236 1.060575 4.121025
O 1.684167 2.208638 1.243095
O 0.929563 4.275594 2.984236
O 1.531913 3.073156 -1.118833
O 0.771284 5.098493 0.551163
O 4.773351 1.062083 4.961168
O 0.061327 6.093075 -2.156068
O 3.752076 3.696144 4.174564
O 4.573407 1.827766 2.500930
O 3.042119 4.690726 1.467332
O 3.891387 2.783224 -0.112989
O 7.548822 0.504408 6.108397
O 2.883840 5.513625 -0.965741
O 6.866802 1.459865 3.494478
O 6.133882 3.413484 5.074057
O 6.666858 2.225548 1.034239
O 5.992892 4.299245 2.770933
O 5.447316 5.508393 -0.121150
O 5.306327 6.394154 -2.424274
