64

Ba 0.000055 4.756273 2.926434
Ba 0.000046 3.281118 8.974011
Ba 3.741901 1.364123 2.928103
Ba 5.514283 1.985206 8.963114
Ba 3.688287 6.098778 8.964799
Ba 5.460440 5.236216 2.929657
Ti 0.000028 5.980175 10.864324
Ti 0.000276 6.076214 7.173654
Ti 9.202304 -2.684892 1.110846
Ti 2.221334 0.812865 7.092818
Ti 2.214045 6.837153 1.077352
Ti 6.988479 2.522673 1.075639
Ti 6.981384 -3.500574 7.091070
Nb 0.000055 1.982340 4.855915
Nb 3.035704 3.785689 0.068041
Nb 3.068622 3.780657 6.085049
Nb 2.270217 0.808808 10.837783
Nb 2.261245 6.829967 4.840968
Nb 6.941307 2.521771 4.839485
Nb 6.166682 -0.416729 0.066323
Nb 6.134188 -0.417391 6.083357
Nb 6.932142 4.480238 10.839095
O 9.202331 1.754901 0.868276
O 0.000009 6.350923 5.083827
O 0.000055 6.284728 8.983418
O 1.541153 4.717340 7.168913
O 1.540131 4.708661 10.776001
O 9.202405 -2.970018 2.968006
O 0.000074 1.606893 6.877260
O -0.000009 1.644991 11.059321
O 2.873180 5.202820 1.215007
O 2.906751 5.172664 4.767171
O 1.538705 3.051010 1.199911
O 1.556144 3.087101 4.766129
O 2.894612 2.407317 10.746657
O 2.874708 2.379134 7.165913
O 4.797403 4.243548 7.171607
O 4.742152 4.257455 10.723694
O 1.840297 0.683744 0.902661
O 1.889364 0.688418 5.090025
O 1.893616 0.691096 8.943354
O 4.805299 3.088844 1.156973
O 4.747949 3.080123 4.774051
O 1.835512 7.054672 6.885219
O 1.876039 -0.941986 11.062324
O 1.895613 7.021068 2.961513
O 4.460281 0.287508 10.722044
O 4.405140 0.281078 7.170116
O 7.306681 2.663083 2.959838
O 7.366773 2.688355 6.883433
O 7.326181 2.675696 11.063741
O 4.396968 -0.872435 1.155362
O 4.454419 -0.888984 4.772496
O 6.295673 0.952466 4.765385
O 6.329142 0.978042 1.213290
O 7.661280 0.311064 7.167071
O 7.662264 0.302217 10.774470
O 6.327826 -1.845399 7.164280
O 6.307774 -1.814500 10.744811
O 7.646188 -1.317185 4.764276
O 7.663681 -1.355640 1.198212
O 7.308918 4.311120 8.944760
O 7.313169 4.307894 5.091478
O 7.362135 -3.681923 0.900959
