32

Li 0.325761 4.030067 9.129911
Li 1.810258 5.441058 4.871560
Li 1.103831 3.244449 6.345496
Li 3.236996 3.847916 7.719472
Li 4.009099 3.039388 4.765416
Li 3.301676 0.942918 6.209843
Li 2.559134 4.627694 2.087868
Li 1.851711 2.531224 3.532295
Li 2.623814 1.722696 0.578239
Li 4.756979 2.326162 1.952215
Li 4.050552 0.129554 3.426151
Li 5.535049 1.540545 -0.832200
V 0.495098 1.041596 7.687389
V 4.794031 5.127667 3.359235
V 1.066779 0.442945 4.938476
V 5.365712 4.529016 0.610322
O 1.698258 5.504193 9.168143
O 0.267974 4.144730 4.982083
O 1.713537 2.368333 7.771345
O 4.852024 5.353800 7.731748
O 3.406766 3.977721 3.507817
O 0.265893 0.994752 3.623957
O 5.594917 4.575860 4.673754
O 2.454044 1.592891 4.789894
O 1.008786 0.216812 0.565963
O 4.147273 3.202279 0.526366
O 5.592836 1.425882 3.315628
O 4.162552 0.066419 -0.870433
F 2.572005 4.631280 6.372685
F 1.099617 3.231798 2.187669
F 4.761193 2.338814 6.110042
F 3.288805 0.939332 1.925026
