15

Li 10.418222 11.577513 17.289942
Li 5.209236 4.365380 8.245793
Li 5.208986 7.212024 10.317755
Ni 0.000094 2.847132 2.072488
Ni 5.209340 4.365485 9.519539
Ni 5.208996 7.211999 9.044121
Sb 0.000000 -0.000006 2.547292
O 10.358317 14.353383 18.688322
O 0.058832 3.034424 2.854921
O 5.462077 4.591606 7.928546
O 0.059895 0.070975 1.947507
O 5.015071 6.941021 9.427430
O 10.359442 11.389981 17.780979
O 4.956135 9.832741 12.707279
O 5.403214 7.483393 11.208482
