12

Mn 2.815327 1.030481 1.757845
Co 2.815327 1.030481 -0.594949
Co 2.815327 -1.407664 -1.407664
Co 0.000000 2.438145 0.812715
O 4.159849 1.360025 2.700041
O 4.159849 -0.806169 1.977976
O 1.490243 2.840580 4.186334
O 1.658543 0.444484 3.228629
O 3.972112 1.616479 0.287060
O 4.140412 -0.779618 -0.670645
O 1.470806 2.867132 1.537713
O 1.470806 0.700937 0.815649
