28

Li 1.894668 2.384301 8.210291
Li 5.740056 2.154293 8.861908
Li 0.016413 -0.000857 4.649376
Li 3.869677 -0.231335 3.508440
Mn 0.991863 3.668758 1.827092
Mn 1.992618 2.378506 4.366376
Mn 0.991950 1.207785 1.902237
Mn 2.004594 -0.119795 6.576564
Mn 3.918289 -0.234317 8.972565
Ni 3.830346 2.268587 1.680566
Ni 4.826559 0.942796 6.338569
Ni 4.826559 -1.519823 6.413816
O 1.062267 3.680838 5.419378
O 0.222553 2.484239 3.068105
O 1.835276 2.387893 0.806318
O 0.060025 -0.003592 2.874341
O 0.044076 -0.002643 7.499405
O 1.062290 1.187482 5.495573
O 2.729561 3.464830 2.968747
O 2.729660 1.204057 3.037813
O 1.893460 -0.113207 0.843460
O 3.917487 2.263431 5.245772
O 2.945342 0.914782 7.726507
O 2.945307 -1.266957 7.793149
O 3.842449 -0.229517 5.487505
O 4.888117 0.937284 0.568631
O 5.533190 -0.330752 7.584860
O 4.888175 -1.521967 0.643697
