32

Li 2.067726 8.028077 9.731117
Li 4.683000 0.945070 5.989586
Li 0.547365 8.028077 4.610132
Li 3.162272 0.945070 0.868601
W 0.541821 2.341378 8.995966
W 3.157021 6.631698 6.725594
W 2.073270 2.341378 3.874980
W 4.688251 6.631698 1.604609
F 4.208497 2.170680 10.172775
F 1.495649 0.836817 10.029249
F 1.229987 3.561173 10.268656
F 4.854215 3.621643 7.924495
F 4.922396 0.943859 7.851333
F 2.001700 2.185333 7.796405
F 4.615886 6.787401 7.926647
F 2.240045 5.351576 7.798064
F 2.307598 8.030024 7.869020
F 3.844272 5.411894 5.452606
F 4.110740 8.136572 5.692652
F 1.592779 6.802709 5.549350
F 3.636775 2.170680 5.051790
F 1.385104 3.561173 5.147671
F 1.119442 0.836817 4.908264
F 2.991057 3.621643 2.803510
F 2.922877 0.943859 2.730348
F 0.613390 2.185333 2.675419
F 3.229386 6.787401 2.805662
F 0.307493 8.030024 2.748035
F 0.375046 5.351576 2.677079
F 4.001000 5.411894 0.331621
F 3.734533 8.136572 0.571666
F 1.022312 6.802709 0.428365
