44

Li 0.901624 7.909032 6.499157
Li 2.635758 3.731203 4.302500
Li 4.439020 4.624456 0.714924
Li 6.173148 0.446627 -1.481730
Ti 0.887361 4.781066 6.965248
Ti 2.650028 0.603237 3.836407
Ti 4.424750 7.752422 1.181017
Ti 6.187417 3.574593 -1.947824
P 0.489511 6.103040 4.195932
P 3.047878 1.925211 6.605723
P 1.306330 6.165942 1.415026
P 2.231060 1.988112 1.093686
P 4.843719 6.367547 3.923738
P 5.768449 2.189717 3.602398
P 4.026900 6.430448 -1.588299
P 6.585268 2.252619 0.821492
O 0.958321 4.985070 5.015978
O 1.238574 7.457610 4.367900
O 2.384766 6.279913 6.825882
O 1.152623 2.102083 3.975773
O 2.298815 3.279780 6.433755
O 1.021718 5.553748 2.814398
O 2.579068 0.807240 5.785676
O 0.574543 2.074025 1.362978
O 0.504885 7.437213 1.310442
O 0.737539 4.988512 0.633051
O 4.559108 6.979741 5.323110
O 2.799851 0.810683 1.875661
O 4.111932 2.103805 3.871690
O 4.042274 5.096275 3.819153
O 3.032505 3.259384 1.198270
O 2.962847 6.251854 1.145734
O 4.274928 7.544976 3.141763
O 2.515671 1.375918 -0.305686
O 6.337240 3.367147 4.384373
O 6.569894 0.918446 3.706982
O 6.500236 6.281634 3.654446
O 4.495711 7.548419 -0.768252
O 6.053060 2.801912 2.203026
O 4.775964 5.075879 -1.416331
O 5.922156 6.253576 1.041651
O 4.690012 2.075746 -1.808458
O 5.836204 0.898050 0.649524
O 6.116457 3.370589 0.001446
