14

Li 0.750934 1.020666 1.199992
Li 5.304647 7.128031 8.372012
Cr 3.027791 1.513896 3.925377
Cr 3.027791 4.074348 2.374521
Fe 0.000000 2.560453 3.272107
Fe 3.027791 4.074348 4.786002
O 1.676893 2.156199 2.522456
O 1.633765 2.096454 4.673878
O 1.633765 4.455486 3.245022
O 4.289937 3.462721 3.828978
O 1.765644 4.685975 5.743026
O 4.421816 6.052243 4.898126
O 4.421816 3.693211 6.326982
O 4.378688 5.992497 7.049548
