14

Li 0.785440 1.077915 1.266714
Li 5.128305 7.037940 8.270648
Co 0.000000 2.533795 3.244549
Co 2.956873 1.524132 3.906857
Co 2.956873 4.057928 2.385957
Te 2.956873 4.057928 4.768681
O 1.588160 2.179545 2.561297
O 1.557539 2.137521 4.676765
O 1.557539 4.439631 3.294933
O 4.244041 3.522290 3.896681
O 1.669705 4.593565 5.640681
O 4.356207 3.676224 6.242429
O 4.356207 5.978334 4.860597
O 4.325585 5.936310 6.976066
