32

Li 0.014077 9.267707 3.559303
Li 1.521915 0.813244 3.618760
Li 1.680337 6.339355 4.079338
Li 3.188175 3.741596 4.138795
Li 3.216329 7.310624 0.936660
Li 4.724168 4.712866 0.996117
Li 4.882589 10.238976 1.456695
Li 6.390428 1.784514 1.516152
Mn 6.391555 7.347748 0.922478
Mn 3.215202 1.821638 1.530334
Mn 3.189302 9.230582 3.545121
Mn 0.012950 3.704472 4.152977
Si 1.609971 4.571452 1.581470
Si 1.592282 10.097563 0.956257
Si 4.812223 0.954658 4.119197
Si 4.794534 6.480768 3.493985
O 0.226963 3.770719 1.107079
O 0.254893 9.313242 1.537997
O 1.566612 0.588288 1.533517
O 1.645894 4.568214 3.238701
O 1.556359 10.094324 4.459397
O 1.635640 6.114398 1.004211
O 2.947359 3.787132 0.999730
O 2.975289 9.296829 1.430648
O 3.429215 1.755391 3.644807
O 3.457145 7.265088 4.075725
O 4.768865 4.937822 4.071244
O 4.848146 0.957896 0.616058
O 4.758611 6.484006 1.836754
O 4.837892 10.463933 3.541938
O 6.149612 1.738978 3.537457
O 6.177542 7.281501 3.968375
