28

Li 0.368192 2.971230 6.143001
Li 0.368192 3.066727 13.927811
V 0.040334 0.344550 0.060431
V 0.020911 0.219124 4.462129
V 0.081275 3.036754 2.156635
V 0.040334 5.693407 7.845241
V 0.020911 5.818834 12.246939
V 0.081275 3.001203 9.941429
F 0.021473 4.655881 0.964489
F 0.107556 4.634609 3.413605
F 3.931729 4.817300 6.110941
F 0.021473 1.382076 8.749299
F 0.101097 1.111117 6.289007
F 0.112599 2.201294 4.071144
F 0.107556 1.403348 11.198415
F 3.931729 1.220658 13.895751
F 0.101097 4.926840 14.073817
F 0.112599 3.836663 11.855954
F 0.303602 2.378732 0.203765
F 0.303602 3.659225 7.988575
F 2.073430 3.033077 2.277408
F 2.030560 0.258092 4.543761
F 2.038928 5.714365 7.830023
F 2.073430 3.004880 10.062218
F 2.030560 5.779865 12.328571
F 2.038928 0.323592 15.614833
F 3.870942 0.954432 2.214894
F 3.870942 5.083525 9.999704
