80

Li 0.606409 8.836398 0.808462
Li 0.599628 4.373212 4.778305
Li 1.621979 2.279592 7.179418
Li 2.775606 3.911884 2.539963
Li 3.791175 9.963440 5.447918
Li 3.797957 1.818265 0.138850
Li 4.997213 10.564689 9.140061
Li 5.003994 2.419514 3.830993
Li 6.019564 8.471069 6.738948
Li 7.173191 10.103361 2.099493
Li 8.195541 8.009741 4.500606
Li 8.188760 3.546555 8.470449
Ti 2.245073 11.121111 0.184984
Ti 2.152512 7.678727 4.824440
Ti 2.268600 4.843548 9.047523
Ti 2.128985 1.347928 4.408067
Ti 6.666184 11.035025 4.870844
Ti 6.526570 7.539405 0.231388
Ti 6.642657 4.704226 4.454471
Ti 6.550097 1.261843 9.093927
V 0.247179 6.177940 2.260751
V 1.026757 10.665916 3.511845
V 0.993590 1.730981 1.064217
V 3.370828 8.133921 8.151301
V 3.403994 4.460495 5.703672
V 4.150405 0.013537 6.900206
V 4.644764 12.369417 2.378705
V 5.391175 7.922458 3.575239
V 5.424342 4.249032 1.127610
V 7.801579 10.651972 8.214694
V 7.768413 1.717037 5.767066
V 8.547990 6.205013 7.018160
O 0.513260 5.353305 8.225393
O 0.641221 11.415240 8.287626
O 0.582759 7.681977 6.033779
O 0.680913 2.450157 5.329909
O 0.902789 7.448388 3.414482
O 1.036748 10.632008 1.724374
O 1.325837 12.404560 3.956054
O 1.151033 2.987152 9.142715
O 1.528741 2.299457 2.632705
O 1.666931 5.269207 1.506561
O 2.140498 9.604546 4.483514
O 2.257087 9.195292 9.122970
O 2.170305 0.527187 0.525938
O 2.227280 5.664290 5.165393
O 2.730654 0.922270 6.146017
O 2.868844 3.892020 7.272161
O 3.071748 6.395278 8.595510
O 3.246552 3.204325 4.503260
O 3.360837 8.167829 6.363830
O 3.494796 11.351449 8.053937
O 3.814826 11.117860 1.394323
O 3.756364 7.384598 3.648171
O 3.716672 3.741320 0.690453
O 3.884325 0.838172 3.585937
O 4.910845 11.544781 5.692974
O 5.078498 8.641633 8.588458
O 5.038805 4.998355 5.630740
O 4.980344 1.265093 7.884588
O 5.300374 1.031517 1.224974
O 5.434333 4.215124 2.915081
O 5.548617 9.178629 4.775651
O 5.723421 5.987675 0.683401
O 5.926326 8.490934 2.006750
O 6.064516 11.460683 3.132894
O 6.567890 6.718664 4.113518
O 6.624865 11.855766 8.752973
O 6.538083 3.187674 0.155941
O 6.654672 2.778395 4.795397
O 7.128239 7.113747 7.772350
O 7.266428 10.083496 6.646206
O 7.644137 9.395801 0.136196
O 7.469333 -0.021606 5.322857
O 7.758421 1.750945 7.554537
O 7.892381 4.934565 5.864429
O 8.114256 9.932797 3.949002
O 8.212410 4.700976 3.245132
O 8.153949 0.967714 0.991285
O 8.281910 7.029649 1.053518
