19

Li 1.129045 4.682969 0.057437
Li 2.578375 2.022266 1.417063
Li 3.123132 3.120344 -1.410427
Li 4.064641 -0.349784 2.699305
Mn 5.123117 1.584852 4.051398
Mn 3.554244 3.883699 2.699696
Mn 1.559788 0.263531 -0.069009
Cr 0.544301 3.474936 2.729679
Cr 4.592719 0.685471 -0.123526
O 0.170153 0.319529 5.820464
O 1.766012 3.457331 4.101135
O 0.608665 1.519106 2.733425
O 1.186439 2.174567 -0.131381
O 2.406182 4.012352 1.481355
O 2.754549 0.062995 1.175730
O 3.987800 2.002711 2.703690
O 4.478525 2.672044 -0.150463
O 3.456843 0.746913 -1.530996
O 4.738018 3.760648 -3.082957
