68

Cr 0.303094 6.018681 2.294696
Cr 0.943356 10.424714 3.419973
Cr 0.941741 1.716420 1.008207
Cr 3.397106 7.947650 7.938283
Cr 3.398721 4.343522 5.526517
Cr 4.037367 0.041261 6.813007
Cr 4.643548 12.078623 2.223614
Cr 5.282203 7.776362 3.510104
Cr 5.283818 4.172234 1.098338
Cr 7.739183 10.403464 8.028414
Cr 7.737568 1.695171 5.616649
Cr 8.377838 6.101203 6.741925
Ni 2.197671 10.858597 0.256441
Ni 2.142791 7.513766 4.774752
Ni 2.192610 4.645628 8.771487
Ni 2.147852 1.414314 4.253176
Ni 6.533072 10.705570 4.783445
Ni 6.488314 7.474257 0.265134
Ni 6.538133 4.606118 4.261869
Ni 6.483253 1.261287 8.780180
O 0.609852 5.519110 7.869279
O 0.666035 11.080086 8.003085
O 0.588723 7.528781 5.997759
O 0.594574 2.321605 5.210859
O 0.811354 7.194609 3.366801
O 1.042666 10.314199 1.731787
O 1.206891 11.981364 3.887527
O 1.113068 2.970322 8.989125
O 1.375536 2.175163 2.530389
O 1.602047 5.285244 1.578869
O 2.051389 9.448056 4.221268
O 2.289073 8.924308 8.739578
O 1.990614 0.477995 0.532998
O 2.349848 5.581947 5.051309
O 2.738415 0.774699 6.097180
O 2.964926 3.884779 7.048700
O 3.133570 6.390999 8.405838
O 3.227394 3.089620 4.470814
O 3.297796 8.058165 6.250098
O 3.529108 11.177755 7.885112
O 3.751739 10.843583 1.479448
O 3.674427 7.292277 3.484774
O 3.745888 3.738337 0.692549
O 3.730610 0.540832 3.350969
O 4.950314 11.579052 5.685652
O 4.935036 8.381547 8.344073
O 5.006488 4.827607 5.551847
O 4.929185 1.276302 7.557173
O 5.151816 0.942130 1.151510
O 5.383128 4.061719 2.786523
O 5.453530 9.030264 4.565807
O 5.547353 5.728885 0.630783
O 5.715998 8.235106 1.987921
O 5.942509 11.345186 2.939441
O 6.331076 6.537937 3.985313
O 6.690310 11.641890 8.503623
O 6.391851 3.195576 0.297043
O 6.629535 2.671829 4.815353
O 7.078877 6.834641 7.457752
O 7.305388 9.944721 6.506232
O 7.567856 9.149563 0.047496
O 7.474032 0.138520 5.149094
O 7.638258 1.805686 7.304834
O 7.869570 4.925275 5.669820
O 8.086350 9.798279 3.825762
O 8.092201 4.591104 3.038862
O 8.014897 1.039798 1.033536
O 8.071072 6.600775 1.167342
