28

Li 0.958870 6.704116 8.763809
Li 1.598295 3.409418 3.591149
Li 3.515964 3.282491 6.754101
Li 4.155383 -0.012159 1.581472
Fe 0.950780 3.308883 8.631302
Fe 1.606324 0.037092 3.458663
Fe 3.507930 6.654844 6.886566
Fe 4.163479 3.383060 1.713927
Si 0.964205 1.580886 6.119701
Si 1.592955 1.765143 0.947318
Si 3.521344 4.926820 9.398201
Si 4.150070 5.111016 4.225373
O 0.669368 5.233345 3.969820
O 0.914443 3.076535 1.696242
O 1.008601 0.411770 1.682437
O 1.233224 1.738877 9.691044
O 1.323920 1.607111 4.518607
O 1.548467 2.934328 6.855024
O 1.642722 0.269507 6.868893
O 1.887746 4.880169 9.142312
O 3.226452 1.811768 1.202917
O 3.471537 6.422388 3.476398
O 3.565808 3.757649 3.490267
O 3.790287 5.084819 5.826767
O 3.881019 4.953093 0.654009
O 4.105678 6.280227 8.662771
O 4.199836 3.615381 8.648956
O 4.444860 1.458571 6.375472
