16

Li 5.847999 5.622189 4.148936
Li 2.886305 4.137660 4.147317
Li 2.917167 1.494631 2.456290
Li 5.874949 2.986549 2.451087
Mn 5.887659 2.969881 4.876663
V 2.924601 1.488567 4.882742
V 2.927103 4.117991 6.576718
V 5.893178 5.598348 6.571953
O 4.517622 7.433386 7.110563
O 1.457923 5.908259 7.119108
O 4.365261 4.908432 5.442980
O 1.512231 3.287096 5.390647
O 4.340896 4.950458 2.878210
O 1.487344 3.332967 2.826605
O 4.397345 2.326306 1.144709
O 1.337254 0.801114 1.153555
