52

Li 1.406987 6.909793 6.428377
Li 3.949273 5.489758 0.557708
Li 3.481212 14.420348 1.949466
Li 1.438235 1.068759 1.965025
Li 3.530912 11.079128 6.270730
Li 3.899573 2.148539 3.025528
Li 1.069841 15.840383 3.459460
Li 1.038594 9.999349 1.133728
Mo 1.504921 6.639304 3.197793
Mo 3.528554 11.226376 3.105316
Mo 0.971907 15.569893 -0.099041
Mo 3.901931 2.295787 6.190942
P 1.661645 3.808432 1.298175
P 3.281252 14.011398 4.881545
P 0.815184 12.739021 1.800578
P 3.790206 8.235915 1.420248
P 3.640279 17.166504 1.086926
P 1.159161 9.568930 4.841465
P 4.149232 5.080809 4.414713
P 1.317668 0.638341 5.046372
O 1.889404 5.326025 1.565560
O 2.598693 14.368961 6.272149
O 4.831791 5.438372 3.024109
O 4.179063 3.519938 4.506279
O 1.091335 8.020187 4.736493
O 3.251422 12.450528 4.789979
O 3.148737 7.771310 2.776881
O 4.281747 16.701899 -0.269707
O 1.851697 9.991990 6.091295
O 0.371435 7.801942 1.928000
O 4.318315 16.540184 2.247093
O 4.786629 14.479683 4.893459
O 2.227828 2.888885 2.332605
O 2.356885 12.449688 1.915523
O 0.659738 1.213042 6.370014
O 2.811963 1.173069 4.974263
O 4.618522 10.103658 4.321995
O 4.828111 5.718274 5.579070
O 3.815499 9.810038 1.439475
O 3.614985 0.879449 1.067699
O 1.385493 16.950777 5.151344
O 2.602374 14.648864 3.717188
O 2.105393 16.732531 1.170753
O 2.399725 3.597759 -0.099257
O 0.077104 12.528349 3.198010
O 0.119943 3.519099 1.183230
O 2.643856 5.549093 4.402799
O 0.625132 1.061401 3.796542
O 3.112169 7.609594 0.260081
O 1.817090 10.143631 3.517823
O 0.587424 14.256614 1.533192
O 0.249000 11.819474 0.766148
