25

Mn 1.475067 5.355127 0.705939
Mn 0.000000 0.000000 3.968428
Mn 1.281584 2.040404 1.213680
Mn 2.808899 0.592495 6.551450
Mn 4.423560 2.912167 0.088168
Mn 5.950874 1.464258 5.425938
Mn 5.757391 -1.850465 5.933679
F 0.539079 4.994540 6.788056
F 0.843912 3.812673 1.442887
F 0.505477 1.465468 2.982072
F 0.642228 0.652092 5.869082
F 3.500134 4.588608 0.363752
F 2.258328 2.329665 7.343849
F 5.407825 4.266332 3.265896
F 3.222755 2.186602 1.774558
F 1.995124 0.160271 0.614176
F 5.237334 3.344391 6.025442
F 4.009704 1.318060 4.865060
F 1.824634 -0.761671 3.373722
F 4.974131 1.174997 -0.704231
F 3.732325 -1.083946 6.275865
F 6.590231 2.852570 0.770535
F 6.726982 2.039194 3.657545
F 6.388546 -0.308011 5.196731
F 6.693380 -1.489878 -0.148438
