36

Mn 7.201542 9.756072 11.458779
Cr 0.004111 0.005569 0.006541
Cr 4.207888 5.700510 6.695407
Fe 1.232589 1.669813 1.961242
Fe 2.974818 4.030046 4.733401
Fe 5.446585 7.378597 8.666367
P 2.104938 5.064064 8.979446
P 4.618251 9.238487 6.213089
P 8.005800 5.651104 8.243589
P 0.415005 5.754637 5.158276
P 3.807018 2.171464 7.185866
P 6.313491 6.346571 4.419508
O 0.883266 2.822388 4.734202
O 2.730154 5.036027 3.235098
O 0.525190 6.956583 4.153204
O 4.249452 2.793573 4.541756
O 0.094255 6.142059 6.251613
O 2.130867 5.419921 5.484771
O 2.094593 1.456046 7.493193
O 3.665547 3.614815 6.517103
O 1.474634 3.624468 8.622553
O 5.008523 5.602928 5.190469
O 0.804182 5.952582 8.763382
O 3.322592 8.950296 5.178109
O 5.093049 2.499231 8.216032
O 7.619495 5.458726 4.645896
O 3.406039 5.790968 8.206327
O 6.926459 7.769466 4.807246
O 4.742791 7.791826 6.872116
O 6.328612 9.961817 5.912018
O 6.295304 5.984962 7.904431
O 8.376697 5.272212 7.161108
O 4.187696 8.621642 8.859569
O 7.905715 4.458570 9.253219
O 5.684502 6.383274 10.165079
O 7.537118 8.579831 8.676293
