39

Li 2.999463 1.507144 1.982569
Li 1.992816 4.267666 3.680916
Li 0.036746 9.751806 3.601134
Li 4.964818 5.813200 5.704873
Ti 0.564934 3.473893 8.490708
Ti 1.544000 0.862742 4.879581
Ti 0.522415 8.392945 6.659794
Ti 1.515885 5.531751 6.625536
Ti 3.470201 4.899580 8.461604
Ti 4.429442 2.281472 4.906510
Ti 2.496317 7.770391 4.664413
Ti 4.460880 7.203331 2.634639
Ti 3.427640 10.029622 10.391904
Ti 5.471660 4.366661 2.840806
Ti 5.484101 9.288561 4.641160
O 1.307775 0.671379 2.967542
O 0.305733 3.426388 2.706304
O 0.488748 3.692524 6.795242
O 0.566983 8.269803 4.684427
O 0.426895 8.635503 8.309893
O 2.405995 3.070716 1.006573
O 1.557057 5.459755 8.389991
O 1.457602 5.782643 4.764208
O 2.579546 2.690327 4.665292
O 2.289583 7.717023 6.414060
O 3.366284 5.110885 6.784539
O 1.603284 10.458152 10.197616
O 4.681791 2.347903 2.949340
O 3.683409 5.091234 2.710265
O 2.696108 7.877343 2.892462
O 5.530609 4.277288 4.657346
O 3.544926 9.816427 4.533076
O 5.439994 4.466632 0.992231
O 4.541331 6.941211 8.677453
O 4.431748 7.320309 4.624949
O 3.426071 10.121113 8.600937
O 5.290658 9.157132 2.883946
O 4.475980 11.894535 10.203940
O 5.683628 9.405425 6.402351
