26

Li 3.005304 1.590015 4.747059
Li 7.501414 1.609959 2.540687
V 0.006205 6.390241 0.010456
V 0.002676 3.281624 0.036527
V 4.496236 6.409321 2.422357
V 4.493389 3.299304 2.392645
Si 1.594098 1.595158 2.311663
Si 2.895187 4.807980 4.738297
Si 6.084237 1.614603 0.117859
Si 7.385334 4.827726 2.547727
O 1.074021 0.265378 1.575540
O 0.986382 2.892219 1.502658
O 1.097253 1.669107 3.891335
O 1.244961 4.756464 4.498516
O 3.236026 1.674435 1.993735
O 3.465725 4.747441 1.445529
O 3.471742 3.461408 3.964858
O 3.385207 6.191042 4.037523
O 5.562372 0.285635 0.853128
O 5.477229 2.911443 0.926236
O 5.588469 1.689479 3.395950
O 5.734938 4.776516 2.788041
O 7.726416 1.694567 0.435376
O 7.956959 4.768934 0.982579
O 7.962428 3.480932 3.320749
O 7.875768 6.209400 3.251067
