40

Li 6.361903 4.162755 5.922782
Li 2.483702 7.631309 7.930681
Li 5.514080 4.823993 9.439491
Li 7.241676 8.351700 7.138099
Ti 7.248183 9.852403 11.620805
Mn 0.142790 0.084578 7.223389
Mn 4.150008 5.800393 6.801998
Ni 1.227696 1.712871 2.000987
Ni 3.030514 4.139789 4.838895
Ni 5.484690 7.507356 8.853973
P 2.088151 5.127175 9.200971
P 4.702163 9.512267 6.367142
P 8.075871 5.677475 8.326695
P 0.396002 5.846800 5.230314
P 3.806900 2.149404 7.284685
P 6.357922 6.394691 4.446180
O 1.000761 2.680515 4.802118
O 2.565032 5.181236 3.303993
O 0.431133 7.146646 4.365802
O 4.686732 3.037194 4.631954
O 8.405403 10.121018 10.408171
O 2.024905 5.472564 5.591903
O 2.206136 1.613465 7.709268
O 3.978373 3.608781 6.631373
O 1.485850 3.720859 8.803617
O 5.089888 5.738273 5.224960
O 0.784968 6.064722 8.808782
O 3.328088 1.657438 2.943728
O 5.246160 9.936357 10.776482
O 7.661955 5.548787 4.787512
O 3.433840 5.928998 8.475552
O 6.935545 7.932910 11.886081
O 4.807244 8.075562 7.080064
O 6.406068 9.982575 5.946104
O 6.424689 6.115468 8.144008
O 8.166848 5.257982 7.175012
O 3.999937 8.681556 9.030946
O 7.836848 4.378096 9.281741
O 5.807366 6.341953 10.339414
O 7.609776 8.743259 8.701197
