68

Mn 2.121058 8.203529 7.318332
Mn 2.128626 4.540952 4.522266
Mn 2.120481 0.296193 1.394768
Mn 2.124744 3.949139 10.458014
Mn 6.371261 4.541362 1.395511
Mn 6.366632 8.201228 10.453923
Mn 6.366267 0.295915 4.521060
Ni 6.370522 3.941314 7.314485
P 0.312437 2.131749 5.915978
P 3.932831 6.372552 0.001671
P 4.559845 2.122327 11.845741
P 8.175907 6.365289 5.920109
P 0.911305 3.330078 1.722205
P 0.909980 0.918313 10.126895
P 3.337063 5.156913 7.645398
P 3.332748 7.579641 4.200409
P 5.165822 0.910562 7.651576
P 5.161609 3.320748 4.200770
P 7.585864 5.161638 10.121369
P 7.581235 7.576269 1.721429
O 0.502590 5.447403 5.007997
O 0.505070 7.301309 6.822731
O 0.631524 7.656212 1.879623
O 0.636059 5.094135 9.972038
O 1.266114 1.353996 6.863627
O 1.243123 2.897205 4.945924
O 1.352166 3.724804 0.315972
O 1.354179 0.519904 11.528898
O 1.303288 1.889827 2.085899
O 1.306686 2.358412 9.763582
O 1.530284 4.363612 2.696303
O 1.520441 8.387734 9.142941
O 2.722355 0.114367 3.222275
O 2.711059 4.130417 8.618605
O 2.932560 6.601875 8.012541
O 2.943151 6.137985 3.835230
O 2.881270 4.772134 6.243457
O 2.886273 7.971194 5.605371
O 3.002136 7.145624 0.963979
O 3.001058 5.600111 10.883733
O 3.620012 0.823682 7.798471
O 3.612325 3.402415 4.035537
O 3.742771 1.195794 0.908200
O 3.744224 3.055334 10.939278
O 4.750287 5.442696 0.906500
O 4.749208 7.300793 10.937874
O 4.862778 5.134854 7.823070
O 4.877624 7.654625 4.052234
O 5.495746 2.893993 0.957531
O 5.487533 1.347598 10.881276
O 5.609537 0.531578 6.239448
O 5.566205 3.751531 5.581208
O 5.551801 1.881517 3.824445
O 5.545176 2.326958 8.050418
O 5.749257 4.357436 3.204437
O 5.776920 8.367475 8.623656
O 6.969254 0.111649 2.698821
O 6.971547 4.117285 9.182974
O 7.189430 6.134911 2.088877
O 7.201074 6.605498 9.764641
O 7.145784 4.777729 11.534130
O 7.135167 7.972367 0.319011
O 7.248330 5.636651 6.902117
O 7.252950 7.142709 4.953427
O 7.860133 0.838471 9.970324
O 7.861678 3.407310 1.883703
O 7.988668 1.195855 5.010644
O 8.033545 3.026848 6.864306
