24

Mn 0.000000 4.307094 2.408311
Mn 0.000000 0.000000 0.000000
Mn 3.324014 4.307039 2.408311
Mn 3.324014 -0.000055 0.000000
P 1.661994 7.081680 2.595017
P 1.661994 2.774585 4.629915
P 4.986034 5.839493 0.186707
P 4.986034 1.532399 2.221604
O 0.375248 7.542009 3.302512
O 0.375248 3.234914 3.922420
O 1.662007 7.548259 1.133683
O 1.661994 5.492965 2.737811
O 1.662007 3.241164 1.274627
O 1.661994 1.185871 4.487121
O 2.948759 7.541983 3.302512
O 2.948759 3.234889 3.922420
O 3.699268 5.379189 0.894201
O 3.699268 1.072095 1.514110
O 4.986034 7.428208 0.329500
O 4.986021 5.372914 3.541994
O 4.986034 3.121114 2.078810
O 4.986021 1.065820 3.682938
O 6.272780 5.379164 0.894201
O 6.272780 1.072070 1.514110
