84

Li 1.978259 0.948125 5.728167
Li 4.082226 5.517406 4.709932
Li 0.129094 3.622012 6.720175
Li 2.233061 8.191294 5.701940
Li 6.184929 2.171079 14.166309
Li 8.307418 6.744641 13.142946
Li 4.326541 4.838490 15.157137
Li 6.449030 9.412053 14.133774
Mg 8.421982 2.444226 3.411938
Mg 4.211985 1.221345 8.427261
Mg 6.316980 5.791566 7.417157
Cu 4.433888 3.312955 6.469344
Cu 6.541780 7.883304 5.453638
Cu 6.092179 3.699827 9.380676
Cu 8.200071 8.270176 8.364970
Cu 0.218997 2.092969 11.503039
Cu 2.330485 6.654789 10.477113
Cu 2.105660 4.569709 12.447938
Cu 1.880834 2.484630 14.418762
Cu 3.992323 7.046450 13.392836
Si 4.964160 2.605985 2.958258
Si 6.852525 5.223693 4.005918
Si 7.889554 3.011127 6.818246
Si 1.353956 3.185190 4.463099
Si 0.754079 1.383047 7.987593
Si 2.857364 5.954229 6.967008
Si 2.641955 4.001057 9.014689
Si 3.678798 1.794589 11.848902
Si 4.744405 8.572004 8.016068
Si 5.781434 6.359438 10.828396
Si 5.555548 4.405854 12.884659
Si 7.669799 8.977146 11.876056
Si 7.078411 7.177277 15.415424
Si 0.532521 7.344830 13.046974
Si 1.569365 5.138362 2.415418
Si 3.457241 7.756371 16.908282
O 4.253239 1.698146 3.924181
O 5.428501 4.136787 3.753999
O 0.888732 1.655928 3.663291
O 4.787176 1.417349 6.468818
O 2.073721 4.098556 3.511095
O 6.890595 5.987770 5.452051
O 6.503499 3.790654 7.130974
O 2.417146 2.916390 5.751457
O 2.169251 0.700153 7.571951
O 0.184052 5.924352 2.718919
O 4.525299 7.491011 4.729539
O 8.358442 6.310828 8.282257
O 4.275517 5.272303 6.552057
O 8.108660 4.092120 10.104775
O 4.027268 3.215067 8.711188
O 2.042069 8.439265 3.858156
O 1.794174 6.223029 5.678650
O 0.046864 0.471960 8.956866
O 6.130460 7.792477 7.703340
O 5.743364 5.595361 9.382263
O 1.217332 2.912623 8.784207
O 2.137598 5.040863 7.919012
O 7.846784 10.165782 8.365497
O 5.100296 2.876034 12.095588
O 3.322588 7.483490 7.766816
O 0.580497 0.199135 11.496889
O 6.271817 5.316441 11.928191
O 7.205459 7.446344 11.080316
O 2.711787 4.786605 10.442651
O 2.285736 2.582408 12.163201
O 8.380720 9.884985 10.910134
O 6.619201 4.149818 14.179342
O 6.381371 1.924989 16.004638
O 4.400745 7.141726 11.150023
O 0.308243 6.268330 9.763032
O 4.128037 5.084955 13.310854
O 0.083283 4.054464 11.585021
O 3.903076 2.871089 15.132843
O 8.233214 4.441405 17.150060
O 6.252588 9.658142 12.295444
O 6.014758 7.433313 14.120741
O 1.925584 6.557011 12.732674
O 1.499533 4.352813 14.453224
O 6.362142 6.266690 16.371892
O 3.630823 8.940283 13.398986
O 7.533664 8.707097 16.204495
O 2.993996 6.226798 16.111672
O 4.164456 8.667458 15.939009
