18

V 6.191024 5.551452 1.264447
V 1.373549 3.987334 4.731579
V 2.649327 5.036622 1.979933
V 4.142682 0.959035 3.505026
V 5.323304 2.112386 0.639565
Cu 0.631134 0.565934 4.162007
O 0.230858 5.418438 4.493336
O 0.569842 2.509514 4.737694
O 1.342933 6.314213 1.975037
O 2.514469 4.002713 3.390536
O 2.578139 0.313260 3.547573
O 2.345714 4.062197 0.638894
O 4.271007 2.081780 4.819989
O 4.264832 5.660258 1.894757
O 4.314086 1.909603 2.007579
O 5.467727 -0.308553 3.739522
O 6.109804 3.642614 0.675386
O 6.477891 0.698671 0.647580
