31

K 7.525836 3.834452 -5.679727
K 7.845958 5.662943 -3.937040
K 5.223306 11.684090 -5.635902
K 3.030542 4.010350 2.128272
K 5.218722 6.943259 -0.431061
K 7.431223 9.895344 -8.663195
K 2.941674 3.894234 -1.427799
K 0.751736 7.155657 -3.953220
K 9.722420 12.897133 -7.649423
K 2.625885 8.239065 -2.598772
K 0.008121 4.754830 0.453137
Mn 9.005710 7.452063 -8.230050
Mn 4.045648 9.874143 -6.961415
Mn 6.421412 8.526912 -4.794200
Mn 1.458787 1.937237 1.273752
O 9.384613 5.968011 -2.025233
O 4.326035 1.923072 -3.124690
O 9.297534 9.470994 -7.991350
O 6.915701 6.821374 -5.169204
O 1.073898 1.425336 0.527437
O 0.106585 3.972532 -2.039388
O 10.341115 13.731285 -9.767684
O 3.774932 2.644258 0.746113
O 6.715486 6.042493 -2.122197
O 6.151585 11.023788 -7.183834
O 4.314513 8.088828 -4.502411
O 6.138588 8.152191 -3.766442
O 2.216226 9.457874 -0.185779
O 8.243917 10.943402 -5.723846
O 1.166596 3.916190 1.414172
O 3.549465 7.569427 -1.313159
