36

Mn 0.000000 2.930443 -1.520506
Mn 1.950802 1.951555 0.054723
Mn 1.952021 4.883122 -1.465704
Mn 3.906808 0.975624 1.610554
Mn 0.977490 0.978941 3.130050
Mn 0.000000 2.930443 4.704191
Mn 1.954078 4.881063 4.758993
Mn 4.883396 4.877746 3.239497
Mn 3.910085 3.905132 6.314824
Mn 3.908866 0.973565 7.835251
Fe 2.930443 2.928344 -3.039923
Fe 0.000000 0.000000 6.224696
O 1.451337 1.654438 -1.467079
O 1.463024 4.261697 -2.828288
O 3.201298 3.397143 -1.433607
O 0.643789 3.389375 -0.148971
O 3.265745 0.515107 0.247516
O 0.706096 0.515223 1.572432
O 2.414715 2.222617 1.612413
O 2.412997 5.523856 -0.102733
O 5.391893 5.586168 -1.461539
O 5.401493 2.282785 0.293891
O 1.274966 1.478192 4.651777
O 4.528584 1.464175 2.973187
O 1.332303 4.392512 3.396360
O 4.585921 4.378495 1.717770
O 0.459394 3.573902 6.075657
O 0.468994 0.270519 7.831086
O 3.446172 3.634070 4.757134
O 3.447889 0.332832 6.472280
O 5.154790 5.341464 4.797115
O 2.595142 5.341580 6.122031
O 2.659588 2.459544 7.803154
O 5.217098 2.467312 6.518518
O 4.409549 4.202249 7.836626
O 4.397863 1.594990 9.197835
