14

Li 0.761763 1.011908 1.184250
Li 5.233400 7.118597 8.348128
Ti 2.997582 1.498791 3.922674
Ti 2.997582 4.065253 2.342306
Cr 0.000000 2.566461 3.267398
Cr 2.997582 4.065253 4.766189
O 1.627075 2.134983 2.495888
O 4.278820 3.460856 3.821761
O 1.595325 4.448552 3.241183
O 1.595325 2.114401 4.678498
O 4.399838 3.681954 6.291195
O 4.399838 6.016104 4.853880
O 1.716343 4.669649 5.710617
O 4.368088 5.995522 7.036490
