34

Li 5.904274 3.130295 0.132910
Li 0.118274 0.079211 5.138446
Li 1.313848 1.651671 4.485523
Li 1.970971 2.693069 2.274806
Li 1.097894 3.714673 4.355179
Li 2.283941 5.413598 9.257613
Li 3.813882 2.922373 4.287286
Li 4.742316 4.568957 9.326002
Li 4.792451 6.653584 9.240127
Li 3.987809 5.538417 7.038284
Ti 1.877988 2.652105 9.660995
Ti 3.974110 5.438229 4.382126
Mn 4.002208 2.951326 7.044297
Mn 0.973903 3.931499 7.020140
Mn 4.999192 6.889627 1.878973
Co 1.013406 1.401262 7.103160
Co 1.974455 5.327496 1.940888
Co 4.949570 4.361088 1.975326
O 0.951957 1.385180 0.785046
O 0.036527 2.519577 8.363165
O 5.967383 3.118719 8.106027
O 2.896471 1.608099 8.413961
O 0.892415 3.877815 0.647532
O 2.103650 2.855851 5.905528
O 5.982356 3.169935 3.121737
O 2.899858 4.045600 8.165883
O 2.189298 5.529923 5.563445
O 3.790173 2.981466 0.713646
O 3.014474 4.211967 3.334747
O 3.100495 6.670942 3.189914
O 5.070519 4.521112 5.600444
O 3.914375 5.515349 0.754466
O 5.943511 5.714129 3.247952
O 5.157603 7.102866 5.625487
