13

Fe 4.522979 -0.788121 4.811184
Fe 1.822484 2.077871 3.448053
Fe 0.768155 4.076317 6.674775
Sn 4.476452 -0.770656 1.726043
Sn 4.476452 2.129062 6.728362
S 6.161380 -1.683788 3.402217
S 2.653053 -0.062150 3.318361
S 6.278036 -1.527813 6.124207
S 6.278036 0.987312 5.299877
S 2.746742 -0.012560 6.019821
S 6.519928 1.205608 8.127533
S 2.482356 3.205128 5.308153
S 2.653053 3.342455 8.155196
