26

Li 0.725033 2.905036 0.412176
Li 3.071189 6.924957 2.021752
Li 4.521254 1.114885 2.846104
Li 6.867410 5.134806 4.455681
Fe 0.000000 0.000000 0.000000
Fe 3.796221 4.019921 2.433928
P 1.465926 1.574064 2.656588
P 2.330295 5.593985 4.906386
P 5.262148 2.445857 -0.038529
P 6.126517 6.465778 2.211268
O 7.164138 6.884050 3.313200
O 0.771946 1.544044 4.032807
O 1.152191 4.613543 4.848959
O 1.934964 3.003355 2.284892
O 1.861257 7.023276 0.149036
O 2.644030 0.593622 2.714015
O 3.024275 5.563965 3.530167
O 4.224526 2.864129 3.988585
O 3.367917 5.175713 0.879277
O 4.568168 2.475877 1.337689
O 4.948413 7.446220 2.153842
O 5.731186 1.016566 4.718820
O 5.657478 5.036487 2.582964
O 6.440252 3.426299 0.018897
O 6.820496 6.495798 0.835050
O 0.428305 1.155792 1.554651
