74

Mn 14.265046 -0.961129 8.287341
Mn 14.219109 7.097335 6.492220
Mn 0.437353 2.457183 3.111710
Mn 0.487677 5.223054 5.439752
Mn 6.706843 1.094714 7.522573
Mn 7.167544 3.536881 0.779572
Mn 7.213481 3.558354 5.637391
Mn 6.656520 6.408780 8.257228
Mn 7.564947 6.047971 3.896803
Mn 13.867643 4.607718 8.232808
Se 2.063201 2.557965 5.989686
Se 1.876809 3.006539 10.316951
Se 5.267388 0.545358 0.317332
Se 5.080996 0.993931 4.644596
Se 2.147017 6.988375 10.284206
Se 2.280971 7.742172 5.328271
Se 4.863226 3.889662 8.368709
Se 4.997180 4.643459 3.412774
Se 9.294343 2.471472 7.980191
Se 9.412251 3.160772 3.036459
Se 12.020340 -0.585021 6.030455
Se 12.138248 0.104279 1.086722
Se 9.180736 6.307718 6.693956
Se 9.040438 6.557342 11.066102
Se 12.392152 4.098347 1.063509
Se 12.251855 4.347971 5.435655
O 0.820468 1.313021 6.200694
O 1.409721 0.762670 3.449635
O 0.385829 3.741486 9.890118
O 1.588155 1.239276 9.844522
O 1.392118 3.367034 4.627731
O 1.873637 3.007281 2.081371
O 1.700405 3.852311 7.058843
O 0.886509 7.090561 4.345818
O 0.744625 6.494929 11.202704
O 1.021677 6.459907 8.859377
O 5.443792 -0.300414 3.575439
O 5.270560 0.544616 8.552911
O 5.752079 0.184862 6.006551
O 2.343954 6.336048 6.135907
O 5.556042 2.312621 0.789760
O 3.923450 5.939510 3.417759
O 6.758367 -0.189589 0.744164
O 3.220747 5.692324 10.279221
O 5.734475 2.789227 7.184647
O 6.323729 2.238876 4.433589
O 4.800243 5.295786 7.561073
O 6.122520 5.171928 4.837603
O 6.399572 5.136905 2.494276
O 6.257688 4.541273 9.351163
O 8.050695 2.551385 2.036080
O 7.892080 1.980417 8.904954
O 8.139884 1.995081 6.562308
O 9.643037 1.917550 3.970290
O 7.935345 4.956139 6.903838
O 8.504223 4.359468 4.238642
O 11.103668 1.427890 1.102728
O 7.536228 7.293791 10.512906
O 10.328923 1.147861 7.964185
O 8.729651 4.814408 10.537323
O 11.789554 0.658201 5.096623
O 8.558076 7.002534 5.354968
O 8.985957 6.577256 2.804431
O 8.585710 7.310544 7.934148
O 13.292707 0.580671 2.504606
O 13.540511 0.595334 0.161960
O 13.381895 0.024366 7.030833
O 12.846881 3.345145 4.195463
O 12.446634 4.078433 9.325180
O 12.874514 3.653155 6.774643
O 12.702939 5.841281 1.592288
O 13.896363 3.361898 1.616705
O 12.928367 6.296221 7.890968
O 13.497245 5.699550 5.225773
