32

V 3.785662 5.015350 1.061477
V 4.071173 2.493338 8.808281
V 2.593343 2.497044 3.319020
V 2.642523 4.775953 12.410585
V 1.386134 4.691559 6.530228
V 1.394780 2.483528 14.717487
V 5.073472 2.684289 14.758816
V 5.231956 4.906922 6.719218
O 4.998086 6.352112 8.139331
O 2.867185 5.816600 2.718076
O 4.855680 3.984891 7.967311
O 2.307465 3.886041 4.869999
O 2.240541 3.907046 13.702825
O 3.172084 2.597637 15.163108
F 4.882454 6.401027 -0.002365
F 5.056459 4.078491 -0.963220
F 4.813049 2.652883 2.771589
F 4.901896 4.983389 11.725963
F 2.153538 4.861357 0.394449
F 2.991584 3.463988 1.760803
F 3.038462 5.857922 10.904895
F 3.018174 4.875792 7.191812
F 2.850476 3.479054 10.774439
F 2.221593 1.517785 4.833594
F 2.230207 2.483823 8.452058
F 0.350516 3.334788 7.655673
F 0.372796 2.330636 3.853680
F 0.423863 4.789409 12.916287
F 2.546055 1.559228 12.789370
F 0.176601 3.330384 16.678244
F 0.213403 0.981662 7.523971
F 0.490472 0.971661 15.594669
