12

Ti 0.000000 0.000000 0.000000
Co 0.000000 0.000000 2.049675
Co 0.000000 2.872917 1.436458
Co 0.000000 2.872917 3.486133
O 1.152812 1.372484 1.413558
O 1.152812 1.372484 3.382836
O 1.152812 4.132714 2.793672
O 1.158348 4.209657 4.855107
O 4.693876 1.536178 4.937849
O 4.699412 1.613120 6.999283
O 4.699412 4.373350 6.410119
O 4.699412 4.373350 8.379398
