16

Li 0.222392 2.777588 1.601044
Li 4.944342 7.096166 -0.991941
V 2.624742 0.030014 1.442783
V 2.541992 4.348592 -0.833680
F 1.387258 7.390537 2.036216
F 1.488918 4.136066 2.485434
F 1.556696 1.338059 2.188690
F 1.363243 5.616638 -0.206711
F 1.460935 0.092469 0.117561
F 1.470545 3.082687 -0.045238
F 3.610038 5.656637 3.149458
F 3.677816 8.454644 2.852713
F 3.779476 3.071960 3.301931
F 3.696188 7.401265 0.654341
F 3.705799 4.411047 0.491542
F 3.803491 1.298061 0.815814
