20

Li 1.045453 4.270248 -0.060166
Li 1.955047 1.084528 4.024465
Li 2.510900 2.007026 1.284137
Li 3.066753 2.929523 -1.456192
Li 3.976347 -0.256196 2.628439
Co 0.504269 3.342965 2.675638
Co 4.517531 0.671086 -0.107365
Ni 0.000000 2.478285 -1.403996
Ni 3.489011 3.784709 2.610600
Ni 1.532789 0.229343 -0.042327
O 0.245581 0.294583 5.529580
O 1.639271 3.123444 3.988263
O 0.658328 1.509815 2.632480
O 1.081510 2.211624 -0.048882
O 2.128912 4.002910 1.401593
O 2.892888 0.011142 1.166680
O 3.940290 1.802427 2.617155
O 4.363472 2.504237 -0.064207
O 3.382529 0.890608 -1.419990
O 4.776219 3.719469 -2.961307
