38

Li 4.017495 -1.466556 11.552716
Li 5.117844 -1.729190 6.034939
Li 2.610249 2.027034 13.090493
Li 3.287664 1.124639 7.035470
Li 0.456488 -0.028980 14.310518
Li 1.812772 2.916354 1.822791
V 3.926993 -0.865751 14.799612
V 4.435588 -1.703538 8.732064
V 2.008253 2.090609 15.744127
V 0.071090 0.143655 17.006480
V 2.593077 1.241841 9.660632
V 3.219845 0.388611 3.704616
V 1.523220 2.971222 4.752213
V 0.517063 4.062922 10.586020
O 4.639689 -1.919505 13.601382
O 3.534493 2.780832 15.286843
O 3.118515 2.459515 8.830707
O 0.580057 1.293203 16.109871
O 3.473190 2.998669 6.230217
O 1.996702 1.842519 3.475320
F 4.148229 0.627545 13.676943
F 4.700557 1.144599 11.307457
F 3.130118 0.441122 15.764216
F 4.349812 -1.388043 3.916346
F 4.423880 0.377028 5.928421
F 3.085652 2.379906 17.906855
F 3.329021 0.024031 8.516091
F 1.655838 -0.804131 13.238562
F 4.946617 0.994410 3.430687
F 2.294387 -0.216733 10.746796
F 1.623232 -0.491764 3.969879
F 2.125782 -0.090801 1.649258
F 0.899546 1.768327 13.550762
F 1.849367 2.383394 10.915799
F 0.735258 3.759909 15.456010
F 0.423086 1.209038 8.146223
F 1.055967 1.541191 5.720958
F 0.358166 4.108981 5.570925
