44

Na 5.151981 9.313011 11.428951
Na 3.804876 5.984238 5.132787
Na 4.832744 2.575163 8.358478
Na 4.124143 5.273220 2.062290
Na 1.847139 4.924917 10.530375
Na 1.138317 7.623006 4.234087
Na 2.166275 4.214010 7.459854
Na 0.819211 0.885084 1.163803
Li 5.678843 8.194672 5.995849
Li 3.278068 7.102357 12.291808
Li 2.693124 3.095679 0.300820
Li 0.292379 2.003460 6.596640
V 4.122901 8.572184 2.714800
V 4.833824 6.724946 9.011100
V 1.137463 3.473119 3.581477
V 1.848154 1.625908 9.877828
P 5.411346 4.859824 11.380444
P 2.425896 7.209671 7.508558
P 3.545248 2.988477 5.083957
P 0.559799 5.338175 1.212197
O 5.636770 8.169780 9.610555
O 5.795591 5.997300 7.841438
O 5.051277 7.358691 0.812193
O 5.747422 3.878378 10.281020
O 3.905484 7.938366 7.108200
O 4.422965 5.741369 10.737686
O 4.619130 4.111236 12.546250
O 3.319997 7.127346 3.314275
O 2.809974 8.347003 11.047356
O 4.337679 3.737201 6.250051
O 4.533766 2.107055 4.441452
O 2.761948 6.228147 8.607933
O 3.209345 3.970070 3.984657
O 1.437426 8.091085 8.151138
O 1.633537 6.460958 6.342576
O 3.161176 1.851103 1.545209
O 2.651063 3.070771 9.278353
O 1.352044 6.086806 0.046391
O 1.548227 4.456667 1.854891
O 2.065678 2.259873 5.484239
O 0.223651 6.319610 2.311596
O 0.919915 2.839271 11.780423
O 0.175577 4.200785 4.751014
O 0.334464 2.028252 2.982086
