19

Li 3.305265 3.804892 4.269123
V 1.681494 3.067503 6.480468
V 3.807814 0.554520 3.688746
V 0.078659 -0.021033 3.414112
V 1.869080 2.878034 2.544416
V 3.869141 0.338394 -0.118171
V 0.127759 0.107890 0.011459
O 4.407974 -0.287387 5.135040
O 5.394394 1.653919 3.395431
O 2.133392 -0.605315 3.698153
O 0.184746 1.853011 2.890964
O 3.627305 3.868699 2.545315
O 1.260182 3.784152 1.156238
O 1.805625 1.110082 -0.202920
F 2.372912 2.236428 4.360677
F 5.141311 -1.149968 2.707944
F 0.622409 4.609035 3.510471
F 3.249795 1.145551 1.914982
F 4.013947 2.453197 6.455350
