56

Li 8.315255 8.371079 0.054248
Li 2.088841 2.098891 2.099383
Li 2.079881 6.289572 6.214449
Li 4.137506 0.006208 4.154479
Li 4.136706 4.185917 8.315845
Li 6.251729 2.065711 6.241265
Li 6.257330 6.280919 2.093719
Li 8.329142 4.165187 4.209249
Cr 1.081351 1.074233 5.224789
Cr 1.062571 3.163067 7.305920
Cr 1.067448 5.247089 1.076592
Cr 3.138843 3.183102 5.181496
Cr 3.125373 5.207631 3.107924
Cr 3.123572 7.356959 1.023924
Cr 5.228168 3.162642 3.102648
Cr 5.229835 1.016628 1.028897
Cr 5.225976 7.265509 7.275599
Cr 7.303147 1.060335 3.166573
Cr 7.320235 7.291255 5.213579
Cr 7.326678 5.226103 7.357602
Ni 1.034014 7.339644 3.079923
Ni 3.106109 1.042517 7.297943
Ni 5.194609 5.234274 5.204118
Ni 7.267388 3.117793 1.057904
O 0.853866 1.087061 3.281835
O 0.926486 7.449706 5.008814
O 0.969489 5.163409 7.420334
O 1.015134 1.171277 7.109358
O 1.028971 3.267328 0.857504
O 1.159497 3.058462 5.323078
O 1.108117 5.247327 2.921140
O 1.140517 7.245808 1.176118
O 2.942399 1.201408 5.194863
O 2.960746 3.079616 7.149650
O 2.992346 5.399111 1.084164
O 3.138843 5.054737 5.092787
O 2.959221 7.235829 2.975476
O 3.257824 3.223410 3.213408
O 3.292217 0.866711 1.103194
O 3.250631 7.354298 7.431855
O 5.028098 3.098209 5.052368
O 5.123607 5.073855 3.162233
O 5.114530 7.409782 0.911393
O 5.190666 2.993004 1.208722
O 5.206787 0.867648 7.471393
O 5.356051 1.108539 3.017815
O 5.384976 7.379125 5.367794
O 5.347524 5.389890 7.290746
O 7.158434 2.981267 3.137113
O 7.134169 1.083876 1.203443
O 7.224252 7.172118 7.200232
O 7.421812 7.468106 3.235675
O 7.283751 5.417621 5.374687
O 7.425530 0.877038 5.151862
O 7.450228 3.330623 7.236950
O 7.451853 5.207397 0.921574
