104

Li 0.161145 2.369739 5.469704
Li 0.161145 2.651639 12.813046
Li 2.136201 9.542879 5.375885
Li 2.136201 5.521257 12.719228
Li 2.869238 0.499878 12.719228
Li 2.869238 4.521500 5.375885
Li 4.844294 7.391118 5.469704
Li 4.844294 7.673018 12.813046
Li 5.166585 2.369739 1.873639
Li 5.166585 2.651639 9.216982
Li 7.141641 5.521257 9.310801
Li 7.141641 9.542879 1.967458
Li 7.874677 4.521500 1.967458
Li 7.874677 0.499878 9.310801
Li 9.849734 7.673018 9.216982
Li 9.849734 7.391118 1.873639
Sn 1.454140 1.023658 1.810560
Sn 1.454140 3.997720 9.153903
Sn 3.551299 6.045037 1.810560
Sn 3.551299 9.019099 9.153903
Sn 6.459580 1.023658 5.532783
Sn 6.459580 3.997720 12.876126
Sn 8.556739 6.045037 5.532783
Sn 8.556739 9.019099 12.876126
S 0.667305 0.805861 10.871819
S 0.667305 4.215518 3.528476
S 4.338134 9.236896 3.528476
S 4.338134 5.827239 10.871819
S 5.672745 4.215518 3.814867
S 5.672745 0.805861 11.158209
S 9.343574 5.827239 11.158209
S 9.343574 9.236896 3.814867
S 1.633565 6.931260 7.106109
S 1.633565 8.132876 14.449452
S 3.371874 1.909881 7.106109
S 3.371874 3.111497 14.449452
S 6.639005 6.931260 0.237234
S 6.639005 8.132876 7.580577
S 8.377314 1.909881 0.237234
S 8.377314 3.111497 7.580577
O 0.149382 7.071045 6.904417
O 0.149382 7.993091 14.247759
O 0.150303 10.030977 4.766138
O 0.150303 5.033159 12.109481
O 0.253676 4.455308 4.959576
O 0.253676 0.566070 12.302919
O 0.476748 2.282689 10.680407
O 0.476748 2.738690 3.337065
O 1.827086 7.645611 1.173378
O 1.827086 7.418524 8.516721
O 2.079240 9.551957 14.349421
O 2.079240 5.512178 7.006078
O 2.108181 0.441620 10.792878
O 2.108181 4.579758 3.449535
O 2.404223 7.733586 6.134408
O 2.404223 7.330550 13.477751
O 2.601217 2.712207 6.134408
O 2.601217 2.309171 13.477751
O 2.897258 9.601137 3.449535
O 2.897258 5.462999 10.792878
O 2.926200 0.490800 7.006078
O 2.926200 4.530579 14.349421
O 3.178354 2.624233 1.173378
O 3.178354 2.397146 8.516721
O 4.528691 7.760068 3.337065
O 4.528691 7.304067 10.680407
O 4.751764 5.587449 12.302919
O 4.751764 9.476687 4.959576
O 4.855136 5.009598 4.766138
O 4.855136 0.011780 12.109481
O 4.856057 2.049666 6.904417
O 4.856057 2.971712 14.247759
O 5.154822 7.071045 0.438926
O 5.154822 7.993091 7.782269
O 5.155743 5.033159 9.920548
O 5.155743 10.030977 2.577205
O 5.259115 4.455308 2.383767
O 5.259115 0.566070 9.727109
O 5.482188 2.738690 4.006278
O 5.482188 2.282689 11.349621
O 6.832525 7.645611 6.169965
O 6.832525 7.418524 13.513308
O 7.084679 5.512178 0.337265
O 7.084679 9.551957 7.680608
O 7.113620 4.579758 3.893808
O 7.113620 0.441620 11.237150
O 7.409662 7.733586 1.208935
O 7.409662 7.330550 8.552277
O 7.606656 2.712207 1.208935
O 7.606656 2.309171 8.552277
O 7.902698 5.462999 11.237150
O 7.902698 9.601137 3.893808
O 7.931639 4.530579 7.680608
O 7.931639 0.490800 0.337265
O 8.183793 2.624233 6.169965
O 8.183793 2.397146 13.513308
O 9.534131 7.304067 11.349621
O 9.534131 7.760068 4.006278
O 9.757203 5.587449 9.727109
O 9.757203 9.476687 2.383767
O 9.860576 0.011780 9.920548
O 9.860576 5.009598 2.577205
O 9.861497 2.049666 0.438926
O 9.861497 2.971712 7.782269
