80

Li 0.620855 8.629644 0.810425
Li 0.541687 4.245712 4.648736
Li 1.591347 2.141133 7.131283
Li 2.806388 3.830871 2.537870
Li 3.776880 9.739553 5.403838
Li 3.856048 1.726292 0.055323
Li 4.939422 10.217716 9.131504
Li 5.018590 2.204455 3.782988
Li 5.989082 8.113137 6.648957
Li 7.204123 9.802875 2.055543
Li 8.253783 7.698296 4.538090
Li 8.174615 3.314364 8.376401
V 0.346172 6.069334 2.268319
V 1.032289 10.516385 3.487577
V 0.995445 1.727794 1.063550
V 3.365446 7.852811 8.080990
V 3.402290 4.244210 5.656963
V 4.051563 -0.097330 6.861733
V 4.743907 12.041338 2.325094
V 5.393180 7.699798 3.529864
V 5.430024 4.091197 1.105837
V 7.800025 10.216214 8.123277
V 7.763181 1.427623 5.699250
V 8.449298 5.874674 6.918507
Co 2.169807 10.979250 0.197939
Co 2.227928 7.389946 4.791353
Co 2.235817 4.654855 8.912232
Co 2.161918 1.317149 4.318819
Co 6.633552 10.626859 4.868008
Co 6.559653 7.289152 0.274594
Co 6.567542 4.554062 4.395474
Co 6.625663 0.964758 8.988887
O 0.524606 5.415796 8.100328
O 0.622447 11.201769 8.181356
O 0.578197 7.501007 6.071133
O 0.613053 2.356905 5.311796
O 0.901237 7.294450 3.410582
O 1.118872 10.357765 1.728005
O 1.251727 12.183634 3.883235
O 1.126497 3.021445 9.050062
O 1.521440 2.293526 2.613377
O 1.726639 5.234551 1.574650
O 2.159191 9.519197 4.336320
O 2.238535 8.850000 8.929733
O 2.176650 0.540945 0.497641
O 2.221085 5.431059 5.091054
O 2.671096 0.737453 6.168063
O 2.876295 3.678478 7.206790
O 3.146008 6.185563 8.476648
O 3.271238 2.950559 4.456649
O 3.278863 8.011432 6.321419
O 3.496498 11.074747 8.003995
O 3.819538 10.868189 1.477719
O 3.775288 7.167428 3.587943
O 3.784682 3.615099 0.718382
O 3.873129 0.556208 3.506915
O 4.922341 11.387800 5.679912
O 5.010788 8.328909 8.468444
O 5.020182 4.776580 5.598884
O 4.975932 1.075818 7.709107
O 5.298972 0.869261 1.182831
O 5.516607 3.932576 2.865408
O 5.524232 8.993449 4.730178
O 5.649462 5.758445 0.710178
O 5.919175 8.265530 1.980037
O 6.124374 11.206555 3.018764
O 6.574385 6.512949 4.095772
O 6.618820 11.403063 8.689185
O 6.556935 3.094008 0.257093
O 6.636270 2.424811 4.850507
O 7.068831 6.709457 7.612177
O 7.274030 9.650482 6.573450
O 7.668973 8.922563 0.136764
O 7.543743 -0.239626 5.303592
O 7.676598 1.586243 7.458821
O 7.894233 4.649558 5.776245
O 8.182417 9.587103 3.875031
O 8.217273 4.443001 3.115694
O 8.173023 0.742239 1.005471
O 8.270864 6.528212 1.086498
