34

P 0.043304 1.719505 4.006990
P 0.163307 12.543312 4.012711
P 0.719743 4.564443 0.524859
P 1.155978 9.385993 0.547973
P 4.184869 2.448811 5.662016
P 4.621104 11.501625 5.685130
P 5.177540 5.606131 2.197279
P 5.297544 8.656687 2.202999
W 2.612230 3.679495 3.087184
W 2.728617 10.616676 3.122806
O 0.045648 1.926219 5.556565
O 0.262593 10.220536 6.784298
O 0.187613 12.387642 5.569802
O 0.257295 7.114787 3.438059
O 0.993723 5.338022 6.528048
O 0.901636 4.749458 3.779057
O 1.075155 9.420873 3.821174
O 1.456860 1.975737 3.396198
O 1.582643 12.339650 3.397793
O 1.909396 3.967763 1.259469
O 1.870007 8.277722 -0.126778
O 1.994379 10.408089 1.305747
O 3.346468 3.470908 4.904242
O 3.470840 1.340541 6.336768
O 3.431452 10.904944 4.950520
O 3.758205 5.402469 2.812196
O 3.883987 8.912918 2.813791
O 4.265692 2.483691 2.388816
O 4.439211 11.686639 2.430932
O 4.347124 12.275204 -0.318058
O 5.083552 0.177606 2.771931
O 5.153234 5.450460 0.640188
O 5.078254 3.283354 -0.574309
O 5.295199 8.863401 0.653424
