20

Li 2.557352 0.650704 3.392663
Li 2.636381 1.510806 1.152443
Li 5.121580 1.660297 2.128613
Li 2.486401 2.678850 5.629087
Li 2.562463 3.538838 3.393261
Cr 0.026569 0.492705 2.415846
Cr 5.096033 3.701768 4.365281
Fe 0.014632 3.482707 2.249960
Fe 5.108304 0.710645 4.530201
Fe 2.560759 -0.437398 -1.258344
O 1.223986 0.040305 0.506705
O 3.951143 0.008216 1.612858
O 3.935018 1.025652 -0.817127
O 1.279787 0.949508 5.381868
O 1.186681 2.080450 2.780143
O 3.936234 2.113331 4.000831
O 3.844862 3.242334 1.399167
O 1.188888 3.167477 7.597212
O 1.171279 4.185147 5.168279
O 3.899919 4.153057 6.274470
