28

Li 1.978973 2.448555 8.577080
Li 5.926692 2.155451 9.526926
Li 0.002496 5.131552 4.723961
Li 3.950215 -0.257127 3.793413
Ti 1.966059 2.422918 4.734781
Ti 3.963128 -0.284531 9.536835
Fe 1.015160 3.755151 2.049688
Fe 1.009112 1.249214 2.051816
Fe 3.905544 2.301295 2.061796
Fe 2.023644 -0.140779 6.862948
Fe 4.914028 0.917599 6.852183
Fe 4.920076 -1.589161 6.854313
O 0.996418 3.772956 5.690752
O 0.228357 2.553940 3.278660
O 1.991478 2.438082 0.991882
O 0.000231 -0.001731 2.936139
O 5.928957 2.163507 7.721640
O 0.993228 1.229222 5.693228
O 2.844475 3.511591 3.274476
O 2.837911 1.250069 3.293364
O 2.006769 -0.131033 0.896488
O 3.922419 2.308748 5.681058
O 3.084713 0.924334 8.076122
O 3.091277 -1.338091 8.095012
O 3.937710 -0.265883 5.793924
O 4.932770 0.932834 0.907540
O 5.700831 -0.391264 8.081520
O 4.935960 -1.611326 0.910018
