86

Li 10.002947 5.076291 -0.415793
Li 10.005129 5.070516 6.667313
Li 9.090308 11.282306 5.551521
Li 7.741888 11.758874 12.661955
Li 0.924842 2.424420 7.952451
Li 2.264513 1.943497 0.845584
Fe 5.602593 11.455273 10.127190
Fe 0.018721 3.811587 10.536421
Fe 4.404098 7.065802 10.305670
Fe 5.608019 6.637531 3.199474
Fe 4.408413 2.250363 3.377451
Fe 9.992455 9.893297 2.967429
P 6.689034 9.172528 4.681465
P 9.076253 11.260491 8.726567
P 6.969984 5.426971 11.559032
P 0.934883 2.445013 4.778230
P 3.058891 9.387814 9.073663
P 2.200873 7.122995 4.554526
P 7.810193 6.580747 8.952223
P 0.920297 6.461695 11.618613
P 3.307256 4.538974 1.741217
P 9.090809 7.242688 1.885253
P 3.043825 8.277357 1.948546
P 3.321742 4.533587 8.827079
P 6.705482 9.166581 11.763209
P 7.726431 11.741184 1.664657
P 6.952325 4.316599 4.431701
P 2.285366 1.964551 11.840754
O 0.856076 5.133282 11.604280
O 3.169974 5.775028 9.315430
O 0.357725 1.982639 6.132205
O 3.417277 4.588754 7.274482
O 9.178676 7.541425 8.938719
O 6.811359 10.468163 11.387143
O 7.428231 11.626783 8.916498
O 4.560701 10.206067 9.063440
O 0.135119 6.860310 10.245026
O 7.923078 12.338745 0.317250
O 9.117118 11.024699 1.804877
O 4.496761 7.640557 1.980290
O 1.873030 3.708735 9.224002
O 8.074445 12.721003 5.274426
O 8.177309 5.864227 7.720159
O 5.517099 6.065454 11.526983
O 3.312151 4.624518 0.188186
O 4.836326 5.183250 2.200204
O 3.399288 8.117747 9.085568
O 8.013108 5.640558 12.762431
O 9.155430 8.571623 1.901233
O 1.995406 7.923874 3.262947
O 6.176517 11.008458 1.866077
O 8.017382 5.781352 10.243853
O 0.005676 1.672181 1.180694
O 4.831350 4.076066 9.286377
O 5.448643 3.499771 4.442715
O 1.836440 7.839069 5.784871
O 1.888908 5.124842 2.249277
O 0.893808 2.680568 11.701449
O 3.793203 6.677439 4.468713
O 6.840611 7.929109 4.195175
O 8.137675 9.996809 4.283782
O 9.876718 6.844486 3.259644
O 6.658220 4.090508 11.550371
O 9.134847 9.955134 8.899430
O 3.200258 3.236462 2.115229
O 10.004309 12.032566 12.326324
O 6.218484 7.024571 9.035645
O 1.999140 8.063902 0.743698
O 6.596562 9.118602 6.232115
O 6.695841 9.081431 13.313000
O 3.834749 2.697595 11.640019
O 9.652910 11.723793 7.371772
O 7.417319 6.688459 1.932549
O 3.352846 9.614407 1.954516
O 8.123770 8.581244 11.253803
O 0.832540 6.163161 4.564827
O 6.612950 5.587787 4.422260
O 1.935509 0.984385 8.233156
O 5.178074 9.627992 4.220194
O 7.877327 4.106555 3.028250
O 2.583105 2.079547 4.587604
O 5.176582 8.521054 11.303630
O 2.135400 9.598538 10.478216
O 2.594998 7.017229 11.575597
O 2.087598 1.367682 13.189135
O 0.875598 3.750399 4.604351
