20

Li 5.446715 -0.041550 1.342736
Li 1.294952 2.460862 2.110038
Fe 4.151862 2.766412 4.429084
Fe 0.000017 6.011019 2.777393
C 6.557097 2.941532 0.382154
C 5.855918 0.040360 -0.865536
C 2.405401 5.380262 3.558576
C 1.703151 2.301097 4.725782
O 7.826358 3.143365 0.761290
O 6.149521 3.150380 4.119468
O 6.296808 -0.155361 2.930620
O 6.758323 -0.371424 -0.005819
O 4.620153 0.593104 4.143300
O 5.621901 2.544218 1.056023
O 3.674877 4.937365 3.943031
O 2.145078 2.413333 3.697100
O 1.470720 5.954189 4.223798
O 1.997418 5.248978 2.477757
O 2.606718 2.542796 0.757791
O 0.469146 1.982259 4.921254
