29

Li 1.258101 2.279810 9.881779
Li 1.946661 3.572769 2.669925
V 3.229095 0.260799 3.078869
V 1.602378 2.926294 6.275857
V 4.782801 3.191297 -2.458151
C 4.176092 2.077128 4.481179
C 2.604196 -0.844845 10.111825
C 3.835809 1.374972 8.065148
C 1.017503 1.817347 1.332590
C 2.187258 4.035232 -0.706510
C 0.600561 1.107748 4.949048
O 3.934774 -1.355928 10.250626
O 4.077123 -0.781649 4.804857
O 4.376545 0.670270 7.231965
O 4.566014 1.471777 9.019085
O 3.445888 1.980317 3.527244
O 1.921673 4.430250 6.705194
O 3.635356 2.781825 5.314364
O 1.945411 -0.020082 10.765941
O 2.318705 1.223518 1.462121
O 2.496612 1.981051 7.995635
O 2.717443 3.244597 -1.484359
O 1.259346 0.282985 4.294919
O 2.934663 -1.420043 2.719791
O 1.283088 1.422329 5.846510
O 0.270099 1.682943 0.415445
O 0.487319 2.607982 2.110440
O 0.708149 3.871528 4.556069
O 0.886057 4.629061 -0.836041
