88

Fe 6.513897 0.552212 10.752254
Fe 2.184451 3.749291 5.343322
Fe 4.255128 1.987905 8.015172
Fe 10.882800 3.749291 0.065610
Fe 15.212246 0.552212 5.474542
Fe 11.485839 3.848899 5.333986
Fe 2.787490 3.848899 0.074946
Fe 5.910858 0.651820 5.483878
Fe 12.953476 1.987905 8.211624
Fe 13.141569 5.184984 2.802692
Fe 14.609207 0.651820 10.742918
Fe 4.443221 5.184984 2.606240
P 14.305287 3.745537 5.673375
P 16.492034 0.932850 8.358758
P 7.435122 6.161921 2.859702
P 12.320706 0.623072 5.368506
P 0.904663 4.129929 2.459106
P 5.606938 3.745537 10.553422
P 13.774339 3.820151 10.777438
P 1.263226 2.964843 8.268635
P 11.789759 0.548459 0.264443
P 7.793685 0.932850 7.868038
P 9.603012 4.129929 2.949826
P 9.961575 2.964843 7.958162
P 3.622358 0.623072 0.040426
P 16.133471 6.161921 2.549230
P 5.075991 3.820151 5.449359
P 3.091410 0.548459 5.144489
O 13.326427 3.928116 4.430770
O 4.070270 0.731038 6.387094
O 8.513891 2.349412 7.633918
O 15.115938 5.016843 5.873224
O 11.085958 4.408036 3.363328
O 4.606576 0.794525 9.622458
O 9.802326 3.707236 9.280559
O 0.787583 3.796422 3.944475
O 12.849166 0.321984 1.418828
O 11.510716 1.890688 5.096069
O 4.150817 0.321984 3.990104
O 13.304924 0.794525 6.604339
O 8.882806 5.546490 3.183946
O 6.417589 5.016843 10.353572
O 8.419358 6.303309 6.946345
O 15.878470 0.690620 1.365214
O 10.898143 5.722074 0.073778
O 14.584330 5.087767 10.505001
O 13.245880 3.519063 6.827760
O 4.628078 3.928116 0.978162
O 2.280759 1.819764 4.944640
O 8.977339 3.106230 3.871519
O 2.315309 1.840763 8.186127
O 15.196902 2.524995 5.482710
O 2.712771 5.818900 10.642918
O 4.037617 3.515418 6.604003
O 10.979108 1.819764 0.464292
O 0.278991 3.106230 1.537413
O 13.359080 0.318340 4.213861
O 5.885981 5.087767 5.721796
O 16.292720 0.510158 3.871627
O 6.310739 1.210957 7.454536
O 10.216576 3.887705 6.774147
O 1.103977 3.707236 6.946237
O 14.683926 2.621822 0.174947
O 4.660732 0.318340 1.195071
O 7.594372 0.510158 1.537305
O 17.212240 2.349412 8.592878
O 7.180121 0.690620 4.043718
O 12.768619 0.731038 9.839702
O 16.609114 0.599344 6.873390
O 1.518227 3.887705 9.452650
O 12.790121 3.991604 1.195406
O 6.498554 2.524995 10.744086
O 17.117706 6.303309 9.280451
O 11.013658 1.840763 8.040670
O 9.485932 3.796422 1.464458
O 4.547531 3.519063 9.399036
O 2.387610 4.408036 2.045604
O 11.411120 5.818900 5.583879
O 12.735965 3.515418 9.622793
O 2.199795 5.722074 5.335154
O 2.812367 1.890688 0.312863
O 4.091773 3.991604 4.213526
O 15.009087 1.210957 8.772260
O 5.985577 2.621822 5.233986
O 0.184457 5.546490 2.224986
O 7.910765 0.599344 9.353407
O 6.383040 5.037841 2.777195
O 15.081388 5.037841 2.631738
