28

Li 1.969366 2.426084 8.565355
Li 0.000148 0.000049 9.495665
Li 5.907354 2.162089 4.719725
Li 3.938135 -0.264115 3.789569
Mn 1.969307 2.426231 4.606778
Mn 3.938271 -0.264029 9.382438
Fe 1.000370 3.749685 2.025419
Fe 1.000388 1.232714 2.025540
Fe 3.906589 2.296324 2.025288
Fe 2.000682 -0.134076 6.801379
Fe 4.907231 0.929621 6.801576
Fe 4.907208 -1.587632 6.801668
O 0.998007 3.753134 5.709272
O 0.246674 2.541690 3.312975
O 1.969023 2.426286 0.992347
O -0.000095 0.000042 2.929293
O 0.000095 0.000183 7.705069
O 0.998061 1.229580 5.709661
O 2.830556 3.487080 3.312969
O 2.830567 1.249739 3.312963
O 1.996251 -0.133846 0.933967
O 3.911345 2.295931 5.709771
O 3.076910 0.912421 8.089005
O 3.076857 -1.325067 8.088903
O 3.938466 -0.264081 5.768552
O 4.909441 0.932593 0.933562
O 5.660934 -0.379569 8.089011
O 4.909352 -1.590807 0.933874
