18

Li 2.811546 6.826715 4.015435
La -0.000034 -0.000002 0.000049
Nb 4.175182 10.258023 4.719725
Nb 1.363687 3.431334 0.704216
Nb 1.447915 3.395413 3.311150
Nb 4.259410 10.222109 7.326656
O 2.811546 2.811289 -2.811635
O 2.651783 6.895180 2.964660
O 5.529749 5.662547 -1.145798
O 2.971281 6.758254 5.066269
O 0.093343 7.990891 9.176681
O -0.000011 4.015431 6.827091
O 2.780726 2.918530 1.607571
O 5.394705 9.641770 0.225807
O 2.842349 10.734899 6.423326
O 0.228359 4.011672 7.805130
O 2.811551 2.811278 -0.000144
O 0.000017 4.015443 4.015557
