44

Li 0.777408 9.598657 3.722125
Li 3.688420 -0.156614 2.683932
Li 6.219295 4.400617 6.178559
Li 4.208423 3.758921 0.259254
V 4.656727 7.643497 1.698679
V 4.084418 7.480753 5.094966
V 2.280584 2.492205 4.026622
V 1.832565 2.108907 7.309312
P 0.762600 7.388088 5.905692
P 5.980013 7.729943 6.981324
P 2.006052 9.893766 9.208520
P 2.674417 4.615834 6.265093
P 0.497759 2.104591 1.962013
P 5.685802 2.518804 3.192407
P 3.764100 5.250072 2.876357
P 4.512383 -0.076554 -0.203063
O 2.331791 4.307635 7.604504
O 5.996190 0.244386 0.013312
O 3.927263 9.706449 4.628037
O 2.520383 0.295764 4.468293
O 6.122114 6.955417 4.313415
O 3.691263 6.855822 3.398726
O 4.603007 8.276653 6.529621
O 2.502681 4.539879 3.375841
O 5.098795 4.297851 3.295321
O 4.757894 9.634972 2.366380
O 3.642033 1.485797 -0.285414
O 1.825251 1.910484 2.476008
O 0.118087 6.884757 9.470637
O 0.854832 1.384229 0.700209
O 1.721358 0.041183 6.715680
O 0.152154 7.717244 4.784537
O 0.243947 2.956849 4.723285
O 1.354807 5.606096 5.866041
O 3.976745 5.325023 5.845358
O 5.810751 8.227899 8.287917
O 2.056949 8.125760 5.842707
O 6.107423 2.903303 -0.715667
O 2.928908 8.368250 9.232777
O 2.732427 3.046041 5.688945
O 4.384243 1.787081 3.227151
O 0.540451 9.571646 8.968350
O 6.399766 2.242641 4.253736
O 4.144489 5.433019 1.524204
