27

Li 3.999240 -0.103642 -0.636064
Li 4.709918 0.766542 2.107060
Li 2.908810 3.582539 1.518676
Li 1.107260 1.362849 4.282980
Li 1.817606 2.238125 7.030804
Mn 1.455708 1.790548 0.757895
Mn 4.363296 2.854799 -0.916234
Mn 1.454242 4.309343 -0.918162
Mn 4.363128 -2.179886 7.309615
Mn 1.454196 -0.726824 7.308856
Mn 4.363308 0.337789 5.633503
O 5.199783 1.367668 -1.181695
O 2.217894 2.730837 -1.159032
O 5.199475 -1.308662 0.601004
O 2.106588 0.235760 0.599344
O 3.513389 2.024949 0.939533
O 0.851897 3.354041 0.937347
O 0.691783 0.851783 2.677883
O 3.513436 -0.707859 2.757669
O 2.303597 2.837334 3.633495
O 5.125628 1.277427 3.713838
O 4.965933 -1.224476 5.453531
O 2.303765 0.105719 5.452676
O 3.710450 1.893832 5.792645
O 0.617663 3.438643 5.791084
O 3.599808 -0.601576 7.550827
O 0.617872 0.762190 7.573030
