36

Li 2.003965 4.811677 0.530847
Li 6.628085 -1.479333 1.939709
P 2.133851 4.331016 -1.695764
P 0.342813 -0.101010 5.688566
P 4.013394 3.481050 2.015183
P 4.618656 -0.148707 0.455374
P 8.289236 3.433353 -3.218009
P 6.498198 -0.998672 4.166321
W 1.152284 5.399903 3.094753
W 5.538418 3.268854 -0.726517
W 3.093632 0.063489 3.197073
W 7.479766 -2.067559 -0.624196
O 0.898864 6.103695 1.297460
O 2.197003 5.620323 -1.235894
O 1.614892 4.564541 -2.871814
O 0.910483 3.364481 -0.707683
O 2.395722 4.011744 2.436266
O 0.236812 0.860818 6.488147
O 3.816384 3.773591 -1.758389
O 1.376052 0.406341 2.181816
O 4.033351 3.772842 0.673477
O 1.531041 0.510940 4.565545
O 5.440116 4.220109 2.317214
O 4.031564 1.993937 2.590559
O 4.600485 1.338407 -0.120002
O 3.191933 -0.887765 0.153343
O 7.101009 2.821404 -2.094989
O 4.598698 -0.440498 1.797080
O 7.255997 2.926003 0.288741
O 4.815665 -0.441248 4.228946
O 8.395238 2.471525 -4.017590
O 6.236328 -0.679401 0.034290
O 7.721567 -0.032137 3.178239
O 7.017157 -1.232198 5.342371
O 6.435046 -2.287980 3.706451
O 7.733185 -2.771351 1.173096
