46

Li 1.252664 0.783318 9.140431
Li 3.769491 0.683396 3.490816
Li 2.482121 3.680886 6.336114
Li 3.756179 3.685772 3.470046
Li 1.278196 5.211283 4.365426
Li 3.758792 5.135344 8.251139
Li 0.028372 8.133768 7.186615
Li 3.790155 8.113538 8.257424
Fe 0.010286 2.253456 7.226136
Fe 2.528650 2.242460 1.469311
Fe 0.017557 6.674198 2.442606
Fe 2.523333 6.686522 6.295344
Ni -0.000423 0.723364 2.430623
Ni 2.513388 0.690931 6.284731
Ni 1.253026 2.188457 4.373895
Ni 3.786177 2.271510 8.222291
Ni 0.033135 3.714701 2.402616
Ni 5.030795 5.138179 5.422634
Ni 2.524400 5.156997 1.472334
Ni 1.236592 6.651241 9.151484
Ni 3.786182 6.699605 3.482735
Ni 2.491416 8.137945 1.516882
O 0.573067 0.914186 5.910876
O 1.845568 0.824666 2.823589
O 1.954218 2.050675 7.599496
O 0.595115 2.130193 1.104355
O 3.217531 0.795988 0.110781
O 4.434975 0.908494 6.766037
O 0.536669 3.592470 5.902563
O 3.095735 2.077536 4.938058
O 4.400712 2.194790 2.000239
O 1.889715 3.629028 2.903239
O 4.449360 3.620991 6.646181
O 3.216247 3.650800 0.118691
O 0.631926 5.288242 1.080707
O 1.880964 5.372364 7.616352
O 0.578852 6.488181 5.924151
O 3.155042 5.327325 4.955638
O 1.936611 6.581782 2.834730
O 4.387143 5.230340 2.000683
O 4.404564 6.559309 6.812500
O 1.976266 8.075500 7.602717
O 0.651275 8.087295 1.009543
O 3.130406 6.663509 0.118416
O 3.111222 8.065960 5.052384
O 4.348494 8.098792 1.965042
