18

Mn 0.870622 3.295926 4.807811
Mn 1.742216 2.101516 9.673680
Mn 2.610249 0.911985 4.816143
Mn 3.478282 -0.277547 -0.041393
Mn 4.349876 -1.471957 4.824476
Sb 0.000000 0.000000 0.000000
O 5.184576 0.320647 0.921991
O 1.769618 -0.872492 8.718600
O 0.864561 1.797529 3.900725
O 2.616785 2.409731 5.723231
O 0.873990 0.305360 5.774938
O 1.753403 0.612615 0.982355
O 3.467095 1.211355 8.649931
O 4.346508 1.518609 3.857349
O 2.603713 -0.585762 3.909056
O 4.355937 0.026441 5.731561
O 3.450880 2.696461 0.913687
O 0.035922 1.503323 8.710296
