28

Li 1.971848 2.413284 8.579688
Li 0.027816 -0.002291 9.504286
Li 5.845417 2.131008 4.905487
Li 3.950867 -0.286055 3.831506
V 4.875807 0.910927 6.934364
V 3.877319 2.274517 2.142677
V 4.882526 -1.615701 6.896149
Cr 1.006945 3.742271 2.110461
Cr 1.935411 2.413312 4.691097
Cr 1.008324 1.220461 2.081741
Cr 1.992364 -0.147639 6.859084
Cr 3.882782 -0.284575 9.485121
O 0.875698 3.770948 5.822162
O 0.245451 2.537340 3.283571
O 2.084603 2.402435 1.066493
O 5.791645 2.134021 3.133177
O 5.829508 2.133116 7.925399
O 0.887323 1.208945 5.789086
O 2.895426 3.434749 3.344221
O 2.895333 1.253627 3.318814
O 1.900207 -0.138081 0.982613
O 3.906819 2.276582 5.924631
O 3.107885 0.918035 8.079648
O 3.096025 -1.366680 8.056173
O 3.956971 -0.290116 5.840428
O 4.821407 0.985347 1.155592
O 5.653650 -0.416837 8.138150
O 4.820392 -1.684490 1.124679
