69

Li 1.144054 7.960161 8.381161
Li 1.295438 7.777388 3.316592
Li 0.543055 0.486881 0.943140
Li 2.355913 8.802892 5.922567
Li 2.853428 2.573680 8.281432
Li 4.585372 10.909738 8.190788
Li 3.132654 2.328962 3.324499
Li 4.870450 10.645511 2.886388
Li 4.114243 3.405870 0.757656
Mn 5.286162 9.179208 5.838396
Mn 0.514041 5.134665 8.840644
Mn 0.129462 2.187984 3.831842
Mn 1.823308 10.564643 3.488092
Mn 1.823244 5.889644 6.192218
Mn 1.178926 3.178600 1.093040
Mn 2.906462 11.524495 0.810010
Mn 2.240984 -0.235145 8.806342
Mn 4.197049 8.069508 8.557741
Mn 3.669168 5.161182 3.547455
Mn 3.502652 0.475748 6.144106
Mn 4.670259 6.225555 0.869885
B 0.078600 11.419188 0.972636
B 1.780809 10.629440 8.655565
B 0.689026 4.949930 3.756256
B 1.092476 3.333522 6.321995
B 2.854737 11.680423 6.095632
B 1.739364 5.960992 1.147103
B 3.497159 5.250591 8.652005
B 4.133221 7.984496 3.532049
B 2.431049 -0.460796 3.674117
B 4.701746 6.307894 6.101750
B 3.563757 0.582865 1.082895
B 5.226873 -0.189514 8.655136
O 0.429641 11.394496 8.409227
O 0.758982 8.083067 6.384326
O 1.350389 10.706769 1.400421
O 0.082255 2.801161 5.857222
O 0.674297 4.733386 6.716332
O 2.032964 10.891438 5.666511
O 1.217982 7.312555 1.454190
O 0.896103 5.230743 0.613896
O 0.240535 0.920015 9.228035
O 2.202685 9.229120 8.521425
O 0.865087 3.007928 9.199978
O 2.676812 11.364976 9.001727
O 1.572196 5.698650 4.237127
O 1.274734 3.592909 3.343086
O 3.034865 11.914926 3.016883
O 2.197299 5.988776 8.184334
O 2.763324 8.485687 3.838842
O 1.071063 0.132905 3.614705
O 2.396028 2.549751 6.402792
O 4.202086 11.120589 6.279261
O 3.107936 5.266919 1.392037
O 2.255407 -0.641561 6.632346
O 3.733309 5.731433 5.638268
O 4.220724 7.698297 6.565350
O 2.641675 -0.091067 0.655610
O 4.903241 10.340327 0.832543
O 3.181716 1.992574 1.220433
O 3.802688 3.867489 8.870012
O 4.554546 8.179835 0.142862
O 4.436906 5.972866 8.916934
O 3.287248 0.314642 4.135999
O 4.992672 8.813497 3.745396
O 4.704019 6.652864 3.042014
O 3.933220 0.526593 8.156454
O 4.637267 3.101422 3.377536
O 4.892102 -0.169870 1.398185
