40

Li 0.196814 0.108525 7.119502
Li 6.362192 4.179725 5.888554
Li 4.034524 5.716601 6.678848
Li 1.999842 7.317427 7.654690
Li 5.569508 4.426450 9.234579
Li 7.191904 8.373920 6.690190
Cr 1.188000 1.643248 1.893960
Cr 3.050275 4.173224 4.861227
Cr 5.448054 7.436721 8.731156
Co 7.276016 9.896983 11.619425
P 0.380788 5.796263 5.242123
P 3.882794 2.199008 7.279663
P 6.363676 6.509158 4.466395
P 2.098780 5.050512 9.106523
P 4.602382 9.416824 6.292870
P 8.125386 5.746761 8.298553
O 1.099783 2.684548 4.763236
O 2.532743 5.058550 3.313275
O 0.369305 7.078748 4.339824
O 4.517438 3.079696 4.544574
O 2.010791 5.387929 5.476911
O 0.177122 6.081815 6.430559
O 2.249119 1.570509 7.669588
O 3.881446 3.584154 6.505020
O 5.026914 5.681080 5.156625
O 1.710961 3.638790 8.714688
O 0.672757 5.826463 8.776596
O 3.120149 1.506419 3.000679
O 5.280957 2.658766 8.263325
O 7.697843 5.675248 4.787089
O 6.821369 7.936682 4.903210
O 3.448992 5.917335 8.429241
O 4.828480 8.054456 7.050325
O 6.225253 10.045540 5.815309
O 8.208201 5.479865 7.097407
O 6.483917 6.166222 8.139209
O 4.107247 8.578134 9.036082
O 8.006392 4.430540 9.206576
O 5.883976 6.485852 10.252443
O 7.484059 8.786382 8.731984
