69

Li 7.738081 6.712836 3.913904
Li 8.399998 9.994575 2.412129
Li 9.058799 4.351541 -1.010071
Li 6.424032 9.028491 8.827869
Li 5.081560 2.437798 2.399633
Li 3.765174 4.790479 7.333130
Li 5.757958 5.743759 0.899426
Li 3.093665 1.489398 8.831961
Li 4.426693 8.079085 5.828358
Li 1.777408 3.824912 4.322677
Li 0.440057 6.188811 9.250849
Li 2.437044 7.133332 2.825420
Nb 8.615338 7.109066 1.080269
Nb 7.905517 3.840829 2.600630
Nb 6.641458 6.152703 7.489523
Nb 7.233906 9.510895 6.022150
Nb 5.969327 2.861940 -0.426524
Nb 4.692662 5.204420 4.498514
Nb 3.326916 7.517916 9.439557
Nb 4.015114 1.957431 6.032851
Nb 5.306566 8.500823 3.005615
Nb 1.321377 6.543674 6.408900
Nb 0.632762 3.286525 7.940295
Nb 2.655426 4.245766 1.506371
Nb 1.988833 0.953047 2.987211
Nb 9.259677 1.467326 7.081516
Zn 1.122883 0.516839 5.832321
O 9.233536 9.278845 5.519218
O 9.242766 3.630287 4.244044
O 9.233573 2.532394 1.726608
O 7.971277 4.924895 6.658538
O 9.157415 8.120658 2.891837
O 7.856084 1.438424 5.893637
O 7.533873 7.744896 7.149018
O 8.864137 5.407568 2.235194
O 6.869886 2.203953 3.397261
O 5.544771 4.561483 8.394420
O 8.203276 8.817118 0.478796
O 6.603973 5.029488 3.941374
O 7.908309 2.637338 -0.916356
O 5.255017 7.336203 8.919572
O 5.172134 1.728442 7.700806
O 6.514577 8.342577 4.709304
O 7.829480 5.991842 -0.213889
O 5.256270 9.571106 7.036692
O 6.580402 7.217408 2.118489
O 6.510542 3.872063 1.370224
O 5.178887 6.206326 6.296155
O 4.811630 3.539394 5.653093
O 6.210177 1.157367 0.732450
O 4.225129 6.910224 3.890538
O 2.855014 9.240608 8.802757
O 2.593265 3.069466 7.424565
O 3.929438 0.736768 2.498200
O 3.874977 4.088956 3.204401
O 2.537905 6.430784 8.121480
O 2.594610 5.310107 5.518514
O 3.932351 2.965264 0.617188
O 1.285923 7.655451 10.462958
O 1.237455 4.316707 9.722393
O 2.529241 1.941141 4.824384
O 3.866322 8.562573 1.800911
O 0.914956 1.599075 9.072911
O 3.572227 5.850794 1.154141
O 2.227010 8.191260 6.097408
O 1.569647 2.661051 2.380465
O 0.247129 5.010498 7.305761
O 1.282408 5.420877 2.908684
O 1.217817 8.769465 3.619603
