17

Mn 1.722812 1.923881 3.158131
Sb 0.088603 9.214247 10.413292
Sb 5.277514 10.396906 9.072603
Sb 2.732176 12.075238 11.403279
Sb 2.660210 7.572792 8.140641
O 1.975614 4.812515 4.512793
O 1.353645 2.901741 4.894527
O 0.545548 3.458473 5.691027
O 5.003157 7.129284 7.654361
O 2.074863 9.816889 7.873433
O 4.102706 7.783128 8.433552
O 1.196176 7.370035 7.928194
O 3.220704 5.156107 8.439599
O 0.673532 8.398155 8.865991
O 4.756203 11.510424 10.614366
O 3.765789 12.265437 11.269370
O 3.233943 9.569557 11.488880
