67

Li 1.386010 4.162707 20.052787
Li 1.409172 1.354479 19.742017
Li 1.405656 1.436397 6.398240
Li 4.190302 1.369019 19.972396
Li 4.185523 4.157419 20.228828
Li 4.172136 4.231039 6.849002
Li 4.199709 1.423634 6.559677
Ca 0.058320 0.049379 15.576044
Ca 0.048354 2.747993 2.250941
Ca 2.738505 2.727387 15.406529
Ca 2.851311 5.522787 24.585409
Ca 2.738824 0.069655 2.080074
Ca 2.858130 2.857806 11.149840
Ca 5.531216 2.840276 24.404972
Ca 5.533659 5.544061 10.989368
Nb 0.029529 5.585198 22.644467
Nb 5.586904 2.793115 13.224920
Nb 0.035085 2.795897 9.223132
Nb 0.002560 0.002837 0.006757
Nb 2.782734 2.746618 22.567728
Nb 2.776653 0.052639 9.148622
Nb 2.797373 5.584690 13.302535
Nb 2.807249 5.538376 17.422941
Nb 2.791560 2.789961 -0.063986
Nb 2.811453 2.846273 4.083174
Nb 5.560220 2.783892 17.347952
Nb 5.555251 5.582855 4.015064
O 0.169728 0.133376 20.746042
O 0.087005 2.528078 7.402113
O 0.280533 2.445870 15.323458
O 0.284289 0.354551 1.898175
O 1.093778 1.697965 26.275996
O 1.086511 1.087619 12.943573
O 1.377905 4.166710 17.096671
O 1.402946 4.154824 22.961368
O 1.393052 1.372153 17.610812
O 1.418115 1.361810 23.220226
O 1.378760 4.213328 3.683794
O 1.405919 4.224754 9.630538
O 1.393812 1.417872 4.205160
O 1.416008 1.430610 9.850072
O 1.736131 3.848743 13.355813
O 1.737484 4.527523 26.683989
O 2.453735 0.267770 15.262399
O 2.449403 2.513117 1.842381
O 2.634983 2.596284 20.683743
O 2.719948 0.320680 7.329087
O 2.950618 5.395577 19.308045
O 3.083149 2.909206 5.897406
O 3.138367 3.062994 24.719669
O 3.142268 5.314729 11.393712
O 3.849783 1.733261 13.302117
O 3.855367 1.054202 26.627686
O 4.172729 4.153896 16.771940
O 4.194880 4.167997 22.373625
O 4.184875 1.358163 17.017580
O 4.213509 1.373606 22.879997
O 4.171997 4.222370 3.381445
O 4.196143 4.212821 9.031973
O 4.183980 1.427772 3.586589
O 4.209440 1.420234 9.575673
O 4.496793 4.490882 13.705941
O 4.501700 3.880806 0.293049
O 5.306968 5.236146 24.664632
O 5.301379 3.140714 11.333514
O 5.420568 2.925157 19.238415
O 5.291698 5.527679 5.840988
