28

Li 1.902725 2.509840 8.773092
Li 6.049922 2.280638 9.374173
Li 0.106699 -0.005443 4.852323
Li 4.083552 -0.225008 3.710465
Ti 1.104247 3.826606 1.969666
Ti 1.099585 1.283723 2.044242
Ti 2.084032 -0.117198 6.978849
Mn 4.055114 2.389425 1.745098
Mn 5.097170 0.998954 6.767217
Mn 5.101722 -1.561068 6.837787
Sb 2.164927 2.494029 4.718828
Sb 4.056562 -0.223425 9.551545
O 1.156228 3.905346 5.820485
O 0.241854 2.600357 3.176816
O 1.825246 2.513741 0.870805
O 0.138278 -0.008894 2.961352
O 0.032629 -0.006746 7.954667
O 1.154896 1.196951 5.896867
O 2.826570 3.705571 3.050947
O 2.824938 1.211457 3.121668
O 2.023876 -0.112750 0.846358
O 4.261528 2.378022 5.574366
O 3.016932 0.959787 8.240324
O 3.019609 -1.292929 8.302850
O 3.972233 -0.214331 5.835545
O 5.124373 0.999631 0.569583
O 5.785014 -0.314996 8.095209
O 5.124312 -1.566974 0.639136
