28

Li 1.962280 2.429869 8.761339
Li 0.043224 -0.009865 9.625293
Li 0.023920 -0.000803 4.775914
Li 3.858503 -0.269943 3.765959
Mn 3.845948 2.275170 2.129089
Mn 4.815746 0.910859 6.945588
Mn 4.838755 -1.593246 6.870509
Co 0.988591 3.734304 2.170704
Co 0.992319 1.227795 2.105571
Co 1.973157 -0.142814 6.909866
Sn 1.901728 2.393748 4.786376
Sn 3.857893 -0.272183 9.611683
O 0.912196 3.821514 5.937923
O 0.195287 2.535032 3.245205
O 1.935950 2.419259 1.154923
O 0.019582 -0.007939 2.965620
O -0.007480 -0.032711 7.808593
O 0.914624 1.132618 5.836250
O 2.808448 3.491662 3.290022
O 2.809139 1.208339 3.213363
O 1.828312 -0.118827 1.007980
O 3.926849 2.171741 5.820973
O 2.974315 0.930930 8.056048
O 2.977254 -1.331902 8.046828
O 3.892975 -0.239422 5.906784
O 4.871804 1.019757 1.020156
O 5.635996 -0.272219 8.161803
O 4.890068 -1.702718 0.941226
