30

V 5.455792 -0.004885 11.866737
V 0.845450 2.680892 4.431785
V 1.829184 0.026762 8.806581
V 2.728333 2.634038 13.185104
V 3.415131 0.126411 3.135131
V 4.547972 2.687740 7.379442
O 2.044372 1.078434 3.518203
O 4.299266 3.044075 5.923346
F 0.165424 1.094881 9.240800
F 1.037624 1.590267 13.653418
F 0.740682 3.711379 9.685756
F 0.229213 0.450931 1.590390
F 1.178655 2.171574 5.967692
F 2.059565 0.427850 10.401706
F 0.702247 3.038140 2.782364
F 1.602956 4.804421 7.214841
F 2.498574 3.092821 11.592441
F 2.893298 1.568735 7.917877
F 3.761935 1.039277 12.330481
F 1.693677 4.225640 -0.465914
F 2.560524 3.761346 3.940414
F 3.492115 4.174413 8.360399
F 2.960427 2.179090 0.265058
F 3.967447 0.375162 4.608235
F 4.774817 2.144928 9.034353
F 3.464535 4.777602 1.481515
F 5.235774 4.807767 10.263435
F 4.676434 1.523993 2.213123
F 4.421131 3.678464 -1.789684
F 5.303902 4.173020 2.607206
