20

V 1.019798 4.067133 4.342181
Fe 3.827706 0.132507 0.131793
P 1.955845 1.436609 2.623228
P 1.089465 6.259235 0.086827
P 3.794572 2.323368 4.402051
P 2.917087 5.528585 1.875443
O 0.196825 2.730484 5.568565
O 0.776619 5.379371 5.610217
O 0.843583 0.358641 2.819209
O 1.280850 2.834743 3.016307
O 1.915029 5.389236 3.184252
O 2.779377 3.521445 4.766240
O 2.952564 1.220512 3.707627
O 1.989456 5.179906 0.781953
O 1.991099 7.469413 -0.357349
O 2.866027 1.544494 1.314886
O 3.521001 6.917739 1.664701
O 4.059542 4.443878 1.759100
O 4.240692 1.642917 -1.142959
O 4.602356 6.649312 -1.158633
