40

Li 2.143981 7.707387 8.021442
Li 6.519323 4.729414 6.443162
Li 6.495132 9.254228 6.462616
Li 6.530062 6.224466 9.807516
Mn 0.045703 7.713796 2.634065
Mn 0.452538 5.220398 6.656036
Mn 4.208194 6.128768 7.195900
Mn 3.773600 8.604719 10.453857
Mn 8.176243 7.167956 7.822791
Fe 4.597974 3.701402 3.995060
P 2.151321 3.072704 5.875322
P 2.061000 8.439349 5.369074
P 2.119705 5.460233 9.500468
P 6.322305 6.930823 4.929621
P 6.438063 3.882232 9.129071
P 6.226762 9.214030 8.569293
O 0.415463 0.990490 2.795192
O 0.452529 4.430262 2.291613
O 0.451800 2.638902 5.011009
O 2.094481 1.731604 6.754049
O 3.598526 3.408241 5.293175
O 2.421538 4.335531 6.499599
O 1.933486 8.180530 4.140260
O 2.378785 7.201721 6.244452
O 4.778464 7.312440 4.178309
O 2.399263 5.753824 8.279307
O 6.442665 5.493596 4.683746
O 5.022973 10.327291 11.182559
O 3.574548 2.012770 3.241200
O 2.021264 6.886253 9.765306
O 6.111700 6.626849 6.182873
O 3.616699 5.024816 10.277680
O 6.136458 5.230894 8.387117
O 6.465720 4.131379 10.379231
O 6.166481 8.016637 7.898838
O 4.586938 8.773206 8.913037
O 6.428315 10.534304 7.646954
O 7.727019 9.583736 9.568841
O 7.902576 8.018877 12.102735
O 8.131921 11.400574 11.783181
