16

Sb 0.000000 3.736849 -1.001583
Sb 0.000000 0.000000 0.000000
P 1.963445 0.731604 2.514839
P 3.685717 4.057079 -0.150042
H 0.231085 2.188112 1.130484
H 5.418078 2.600570 1.234313
O 0.245857 5.479076 2.515966
O 1.134674 2.148873 2.437005
O 2.062006 4.081883 0.060018
O 1.279705 -0.245127 1.511996
O 1.772978 0.156450 3.807142
O 3.876184 4.632233 -1.442345
O 4.369458 5.033809 0.852802
O 3.587156 0.706800 2.304779
O 4.514489 2.639810 -0.072208
O 5.403305 -0.690394 -0.151168
