16

Li 0.000000 0.000000 1.276128
Li 0.000000 2.880670 3.366991
Li 5.178388 4.338759 8.195892
Li 5.178378 7.219414 10.286740
Ti 0.000000 0.000000 0.000000
Fe 10.356766 11.558184 15.930383
Fe 5.178378 10.100084 11.101475
Fe 5.178399 7.219437 9.010642
O 0.010036 5.638366 4.794970
O 0.001357 2.969068 2.783847
O 5.523020 4.720206 8.019121
O 10.346762 8.800519 15.778572
O 4.876084 6.876367 9.273924
O 10.355420 11.469789 17.789664
O 4.833746 9.718625 12.554369
O 5.480703 7.562498 11.299601
