38

Li 4.132099 0.000000 5.331713
Li 8.130338 0.000000 1.941483
Li 10.276963 1.434291 3.234893
Li 12.383548 0.000000 4.467795
Li 14.462345 1.434291 5.696143
Li 16.541142 0.000000 1.162334
Li 18.647727 1.434291 2.395236
Li 0.133859 0.000000 2.959787
Co 2.104850 1.434291 1.234021
Co 4.132099 0.000000 2.450635
Co 6.159348 1.434291 3.667248
Co 14.462345 1.434291 2.815064
Ni 8.218517 0.000000 4.908186
Ni 10.325867 1.434291 6.109624
Ni 12.385676 0.000000 1.591879
Ni 16.539014 0.000000 4.038250
Ni 18.598824 1.434291 5.282662
Ni 0.045680 0.000000 5.755241
O 0.183279 1.434291 1.359028
O 2.192202 0.000000 2.474670
O 2.092350 0.000000 5.775330
O 3.993054 1.434291 1.182417
O 4.271144 1.434291 3.718853
O 6.071995 0.000000 2.426599
O 6.171847 0.000000 4.888097
O 8.449976 1.434291 0.462763
O 8.080918 1.434291 3.542241
O 10.313780 0.000000 1.699338
O 10.330433 0.000000 4.761636
O 12.540382 1.434291 2.920829
O 12.257209 1.434291 6.011462
O 14.465899 0.000000 1.507071
O 14.458792 0.000000 4.123058
O 16.384308 1.434291 2.709300
O 16.667481 1.434291 5.380824
O 18.594258 0.000000 0.868493
O 18.610910 0.000000 3.930791
O 20.474714 1.434291 5.167366
