28

Li 1.844439 4.363612 1.306811
Li 3.488290 2.008433 1.661503
Li 3.447495 3.909289 -0.906176
Li 5.286050 3.105576 -2.742236
Li 5.134114 -0.204612 1.686501
Li 3.691242 0.360448 -1.979516
Li 0.062865 3.595866 -0.245882
Li 7.160707 -0.770074 -0.197989
V 0.140854 0.131712 4.241023
V 1.983891 1.183860 -0.012065
V 5.458568 -1.708042 -1.721384
V 7.019152 2.321359 1.010664
O -0.000622 3.505198 2.740336
O 1.716829 0.968682 3.125788
O 1.777851 2.544588 0.587382
O 3.909933 5.266433 -0.033345
O 1.584621 -0.545055 5.348126
O 3.426697 1.938348 -1.242350
O 5.645009 3.173776 0.170670
O 5.671801 4.691908 -2.025418
O 0.061709 1.496455 -0.768481
O 5.525149 1.546457 2.325101
O 5.566529 -0.315029 -1.244101
O 7.115033 4.212450 -4.379317
F 0.073297 5.098234 0.485722
F 1.564025 4.512300 -1.662401
F 3.383184 0.471915 0.964394
F 3.792582 3.734582 2.052600
