26

Li 5.463169 5.889536 8.133552
Li 5.601886 5.833866 1.740762
Li 2.162229 4.238015 2.669490
Li 5.595434 4.254484 2.877699
Li 2.165778 4.114979 7.183908
Li 1.824564 2.611673 4.538977
Li 3.620877 5.112550 10.059704
Li 1.849379 2.625651 9.987707
Li 3.838007 5.220042 4.610220
Li 2.030486 1.159102 7.981313
Li 3.968981 3.445452 8.329313
Li 3.419897 1.855017 2.522511
Cr 5.613796 7.715145 5.674738
Cr 0.004756 4.911633 0.209833
O 5.593373 6.311786 10.589996
O 1.618496 4.325038 5.140593
O 0.014269 1.369941 4.952557
O 1.688239 2.621469 2.665644
O 3.590346 5.058951 8.182258
O 0.020665 4.857763 1.887798
O 0.052538 4.876893 7.345009
O 1.897924 2.726063 8.116546
O 3.911850 5.220176 2.731616
O 1.553577 0.797987 10.336549
O 4.040869 3.383653 10.408147
O 4.035787 2.038334 4.900581
