48

Li 1.639788 2.152707 5.658957
Li 1.915267 2.151495 9.766152
Li 2.012007 6.458607 4.640741
Li 2.287156 6.458799 0.534429
Li 5.567415 2.151656 9.718450
Li 5.842469 2.153234 5.611339
Li 5.939178 6.458194 0.486767
Li 6.214406 6.457628 4.593204
V 1.093040 0.521983 2.551323
V 1.093126 3.783681 2.553101
V 2.834281 4.826060 7.679494
V 2.833817 8.088119 7.678852
V 5.019717 0.521216 2.572202
V 5.020376 3.783284 2.574123
V 6.760942 4.827403 7.700537
V 6.761460 8.089446 7.700244
F 0.860956 4.884164 7.828532
F 0.870184 8.029904 7.829648
F 1.048891 2.153333 3.830271
F 0.998522 5.055846 3.976847
F 0.997925 7.859921 3.978840
F 1.163037 2.153723 1.259302
F 1.256596 5.026321 1.135615
F 1.256439 7.889994 1.135073
F 2.670944 0.724568 6.258719
F 2.670764 3.588362 6.259766
F 2.763514 6.455285 6.387178
F 2.929521 0.753643 9.101160
F 2.928547 3.557951 9.102764
F 2.879010 6.454177 8.957179
F 3.059869 0.580293 2.700487
F 3.062485 3.724646 2.702056
F 4.797065 4.885163 7.550730
F 4.788143 8.031334 7.551625
F 4.975293 2.150552 1.295667
F 4.924728 5.056621 1.150813
F 4.926000 7.861850 1.150654
F 5.090004 2.152423 3.865270
F 5.182888 5.027492 3.992110
F 5.183312 7.891984 3.993516
F 6.599050 0.717610 9.115959
F 6.597213 3.581938 9.119150
F 6.690929 6.460994 8.992491
F 6.855750 0.747184 6.274868
F 6.856048 3.551682 6.274545
F 6.805263 6.460799 6.422455
F 6.990080 0.579776 2.423198
F 6.987818 3.724311 2.424317
