14

Li 0.142291 6.955883 1.572915
Li 2.381397 2.024151 1.572915
Li 2.665978 7.839314 1.572915
Li 4.905084 2.907582 1.572915
Fe 0.000000 0.000000 0.000000
Fe 2.523687 4.931733 0.000000
F 1.299648 1.562304 0.000000
F 1.509861 3.887606 1.572915
F 1.013826 8.819338 1.572915
F 1.224039 6.494036 0.000000
F 3.823335 3.369429 0.000000
F 4.033548 1.044127 1.572915
F 3.537513 5.975859 1.572915
F 3.747726 8.301161 0.000000
