13

Mn 0.772650 1.772031 2.369559
Mn 1.434450 3.741176 -0.512188
Mn 3.939395 6.092204 0.540432
Mn 3.939395 6.092204 -1.953156
Mn 6.133343 8.389840 1.688383
O 2.409193 5.562398 -0.739509
O 5.293599 6.516948 1.935104
O 5.302008 6.641062 -0.689749
F 2.276206 2.441241 3.708287
F 2.276206 2.441241 1.046208
F 2.410233 5.468500 1.881037
F 5.437107 4.028427 3.664048
F 5.437107 4.028427 1.062388
