28

Na 3.979083 1.608951 8.943060
Na 1.256276 6.328431 7.488989
Na 1.256343 3.324867 7.488152
Na 3.902978 3.110586 2.313454
Na 3.902891 0.106970 2.314259
Na 1.180182 4.826874 0.859268
Li 0.001966 0.001538 4.940160
Li 5.157588 3.219195 4.862454
Cu 3.714748 4.827102 6.517732
Cu 1.444398 1.609278 3.284479
P 3.386474 1.608761 5.799845
P 1.772826 4.826634 4.002532
C 3.777232 4.826760 9.364964
C 1.382079 1.608917 0.437521
O 1.374676 1.608995 9.006872
O 2.633696 4.826772 8.744920
O 4.904159 4.826659 8.711154
O 3.976678 0.360298 6.554838
O 3.975600 2.857830 6.554662
O 1.143984 4.826759 5.447818
O 1.846248 1.608053 5.825366
O 3.313053 4.825906 3.977021
O 4.015368 1.608893 4.354627
O 1.183716 6.075701 3.247780
O 1.182632 3.578170 3.247593
O 0.255182 1.608819 1.091054
O 2.525501 1.608925 1.057300
O 3.784615 4.826837 0.795267
