40

Li 2.154799 7.722919 7.993176
Li 6.546008 4.724654 6.472044
Li 6.531418 9.229912 6.441719
Li 6.574874 6.259014 9.782201
Mn 0.081510 7.733196 2.630445
Mn 0.454757 5.233807 6.641122
Mn 4.202591 6.121403 7.184509
Mn 3.776938 8.593392 10.430944
Mn 8.211407 7.157753 7.822621
Cr 4.717861 3.721514 4.009922
P 2.161315 3.082646 5.854971
P 2.073629 8.451072 5.369958
P 2.136210 5.443084 9.490255
P 6.347750 6.928703 4.928880
P 6.446939 3.864731 9.120277
P 6.231539 9.203396 8.563937
O 0.415708 0.991068 2.790272
O 0.457853 4.431619 2.290828
O 0.460559 2.643186 4.996229
O 2.089751 1.732789 6.734872
O 3.628670 3.434118 5.295036
O 2.394623 4.335001 6.477813
O 1.956924 8.195168 4.141603
O 2.352001 7.188266 6.232311
O 4.807631 7.308771 4.178472
O 2.395542 5.742276 8.263963
O 6.450069 5.474749 4.691454
O 5.044572 10.319196 11.159774
O 3.592709 1.988176 3.271086
O 2.034903 6.872017 9.758003
O 6.148200 6.654103 6.182985
O 3.631418 5.003010 10.250400
O 6.166848 5.211026 8.368146
O 6.445654 4.114991 10.367650
O 6.201269 7.996925 7.920375
O 4.582490 8.758587 8.894872
O 6.430775 10.521307 7.633143
O 7.719967 9.601575 9.556858
O 7.940343 7.982732 12.080929
O 8.150766 11.388094 11.800533
