56

Rb 5.600204 2.967724 11.483112
Rb 5.896049 8.826270 1.156827
Rb 5.046109 0.865917 7.526245
Rb 5.341940 6.724492 5.113818
Rb 1.952825 1.878356 1.255423
Rb 2.248597 5.712078 11.581563
Rb 1.398760 3.980178 5.212307
Rb 1.694540 7.813910 7.624679
Li 6.345653 6.019927 12.670341
Li 4.596389 3.672173 6.300997
Li 2.698355 8.518408 0.068149
Li 0.948951 1.173944 6.437430
V 5.486661 2.423590 3.827810
V 5.455454 7.268568 10.197047
V 1.839231 2.422471 8.910767
V 1.808104 7.269794 2.541395
P 7.163197 4.593152 1.917866
P 6.704081 4.729301 8.566484
P 4.238071 4.962992 2.197436
P 3.778954 5.099084 8.287034
P 3.515811 0.252983 10.820645
P 3.056658 0.116789 4.171901
P 0.590655 9.575457 10.541173
P 0.131546 9.439331 4.451373
O 7.205550 8.213112 10.333133
O 7.108756 5.541755 7.353180
O 7.102826 9.319670 5.941790
O 6.845591 3.213903 2.536544
O 6.629747 5.494052 9.900879
O 6.419739 0.519557 3.609924
O 6.025173 2.794609 5.508251
O 5.801247 5.516919 1.935061
O 5.140919 4.175316 8.304233
O 4.916941 6.897433 11.877465
O 4.522354 9.172668 9.979389
O 4.312375 4.198252 3.531724
O 4.096567 6.478371 8.905745
O 3.839231 0.372604 12.311194
O 3.833409 4.150393 0.984027
O 3.736601 1.479065 3.963923
O 3.558244 6.325323 2.405330
O 3.461224 8.996477 5.385248
O 3.455520 5.218688 6.796549
O 3.198242 1.632254 10.201952
O 2.982324 9.044359 2.837526
O 2.772418 4.326526 9.128407
O 2.377714 2.051449 7.230296
O 2.153831 9.021537 10.803447
O 1.493504 0.670826 4.434164
O 1.269599 7.640933 0.860956
O 0.875034 5.365740 2.759198
O 0.664909 0.647946 9.206878
O 0.449188 8.060060 3.832665
O 0.191866 4.473529 0.427384
O 0.186031 0.695750 11.754589
O 0.089193 3.366991 8.774697
