36

Ti 7.219674 9.792611 11.502743
Ni 1.266532 1.717897 2.017902
Ni 2.990237 4.055894 4.764194
Ni 5.481416 7.434875 8.733264
Sn 0.019984 0.027106 0.031840
Sn 4.257779 5.775161 6.783705
P 0.383066 5.754719 5.174222
P 3.837053 2.170730 7.215228
P 2.124668 5.067885 9.066147
P 4.613496 9.328136 6.274998
P 8.109292 5.742750 8.314559
P 6.343345 6.402607 4.440785
O 0.880555 2.782351 4.834535
O 2.688499 5.142371 3.264584
O 0.574158 7.018288 4.227794
O 4.391431 2.872709 4.583921
O 8.429020 10.167191 10.332909
O 2.103445 5.458062 5.582963
O 2.132254 1.523610 7.563765
O 3.774810 3.652049 6.615276
O 1.483302 3.690217 8.638131
O 5.069269 5.738875 5.243899
O 0.750137 5.967349 8.759965
O 3.394068 8.982978 5.235908
O 5.195775 9.887318 10.686189
O 7.677933 5.543206 4.753296
O 3.416004 5.877129 8.289413
O 6.987944 7.904168 11.822141
O 4.832014 7.893767 6.955024
O 6.385647 10.014102 5.927611
O 6.357312 6.039461 8.025500
O 8.380006 5.308827 7.248271
O 4.157910 8.670179 8.924227
O 7.925770 4.447717 9.309238
O 5.745503 6.398634 10.251121
O 7.608154 8.683501 8.724949
