48

Co 0.759301 10.055889 7.290565
Co 0.759301 6.594496 2.370345
Co 2.015852 4.187117 -0.243115
Co 2.015852 1.363012 4.677105
Co 3.790976 9.737245 4.404827
Co 3.790976 6.913140 9.325047
Co 5.047528 4.505761 6.711587
Co 5.047528 1.044368 1.791367
P 0.658163 7.132359 9.051812
P 0.658163 9.518026 4.131592
P 2.149258 4.207364 6.468047
P 2.149258 1.342765 1.547827
P 3.657570 9.757492 7.534106
P 3.657570 6.892893 2.613885
P 5.148665 1.582231 4.950340
P 5.148665 3.967898 0.030120
O 0.318086 9.155481 5.623474
O 0.610617 0.761256 6.095411
O 0.318086 7.494904 0.703254
O 0.610617 4.788873 1.175190
O 0.881918 8.317911 8.145929
O 0.866878 5.073916 6.576759
O 0.881918 8.332474 3.225709
O 0.866878 0.476212 1.656539
O 1.952250 6.225990 8.968701
O 2.386549 3.591088 7.875399
O 1.952250 10.424395 4.048481
O 2.402813 10.659676 7.862932
O 2.047929 3.115431 5.435510
O 2.386549 1.959040 2.955179
O 2.402813 5.990709 2.942712
O 2.047929 2.434697 0.515290
O 3.758900 8.665560 8.566643
O 3.404015 5.109548 6.139220
O 3.420280 9.141217 6.126754
O 3.758900 7.984825 3.646423
O 3.404015 0.440580 1.219000
O 3.854579 0.675861 5.033452
O 3.420280 7.509168 1.206533
O 3.854579 4.874267 0.113232
O 4.939950 10.624045 7.425393
O 4.924911 2.767782 5.856223
O 4.939950 6.026340 2.505173
O 4.924911 2.782346 0.936003
O 5.196212 6.311384 7.906742
O 5.488742 3.605352 8.378679
O 5.196212 10.339001 2.986522
O 5.488742 1.944776 3.458458
