36

Li 3.498193 1.251250 3.342244
Li 3.498180 2.663272 7.665220
Li 0.270213 5.165801 0.980681
Li 0.270271 6.577807 5.303649
Mn 6.327869 0.084641 8.626399
Mn 3.099966 7.744585 0.019478
Mn 4.843478 0.978141 5.757974
Mn 4.843459 2.936593 1.434897
Mn 3.099908 3.999145 4.342592
Mn 6.327875 3.830042 4.303424
Mn 1.615562 4.892708 7.211081
Mn 1.615485 6.850902 2.887849
P 1.640075 1.260758 5.683765
P 1.640172 2.654029 1.360672
P 4.868030 5.175428 7.285253
P 4.868004 6.568308 2.962134
O 1.903316 0.553998 4.336953
O 2.872795 1.072806 6.624969
O 0.394922 0.606404 6.368137
O 4.661163 1.398867 0.101244
O 1.440039 1.135155 1.127987
O 1.440123 2.779223 5.451050
O 4.661195 2.515810 4.424308
O 2.872717 2.841677 2.301970
O 0.394864 3.308125 2.045068
O 1.903322 3.360394 0.014022
O 5.131289 4.468770 8.631851
O 6.100820 4.987460 6.343880
O 3.622857 4.521050 6.600777
O 1.433208 5.313285 4.221650
O 4.668058 5.049794 3.194830
O 4.668084 6.693854 7.517806
O 1.433234 6.430369 8.544826
O 6.100698 6.756245 2.020847
O 3.622825 7.222615 2.277795
O 5.131289 7.274994 4.308894
