46

Li 1.233212 0.713339 9.059590
Li 3.762374 0.654312 3.444320
Li 2.444281 3.721918 6.303876
Li 3.762484 3.748880 3.446118
Li 1.259787 5.150797 4.392050
Li 3.716622 5.091770 8.180255
Li 0.048718 8.159376 7.147764
Li 3.716513 8.186338 8.178456
Cr 4.953195 2.286028 5.372694
Cr 2.488028 2.211461 1.448037
Cr 0.004971 6.648919 2.426821
Cr 2.525802 6.723486 6.251881
Ni 0.005260 0.723696 2.421927
Ni 2.477517 0.725294 6.262411
Ni 1.286133 2.214735 4.354058
Ni 3.704098 2.263077 8.182020
Ni 0.024840 3.701728 2.380247
Ni 0.015482 5.162752 7.189229
Ni 2.487739 5.161154 1.452931
Ni 1.206866 6.652194 9.097582
Ni 3.774899 6.700535 3.442555
Ni 2.468159 8.139186 1.494611
O 0.694131 0.908126 5.859317
O 1.926350 0.856563 2.794299
O 1.832200 2.072231 7.560113
O 0.592027 2.176183 1.087339
O 3.081980 0.798183 0.123419
O 4.259927 0.866272 6.739710
O 0.606357 3.622244 5.817567
O 3.235778 2.132057 4.836950
O 4.376325 2.211567 1.911405
O 1.843388 3.640677 2.828339
O 3.211112 3.640322 0.131357
O 4.406779 3.631971 6.614435
O 0.566649 5.294021 1.080559
O 1.798868 5.345584 7.592323
O 0.660799 6.509689 5.891527
O 3.219070 5.303730 4.884865
O 1.900971 6.613641 2.787519
O 4.397017 5.235642 1.924374
O 4.243219 6.569515 6.787625
O 0.649611 8.078135 1.046519
O 1.886642 8.059702 7.634073
O 3.102672 6.649025 0.136388
O 3.072217 8.069429 5.010139
O 4.267884 8.077780 1.916435
