76

Li 2.284392 1.893751 2.506320
Li 2.284392 6.876578 7.018245
Li 4.018491 2.491414 7.018245
Li 4.018491 6.278915 2.506320
Li 8.587275 2.491414 6.517530
Li 8.587275 6.278915 2.005605
Li 10.321374 1.893751 2.005605
Li 10.321374 6.876578 6.517530
Mn 1.377029 2.214227 8.653358
Mn 1.377029 6.556101 4.141433
Mn 4.925854 6.599392 8.653358
Mn 4.925854 2.170937 4.141433
Mn 7.679912 2.170937 0.370492
Mn 7.679912 6.599392 4.882417
Mn 11.228737 2.214227 4.882417
Mn 11.228737 6.556101 0.370492
S 0.000000 3.970126 2.255963
S 0.000000 4.800203 6.767888
S 1.859590 0.897731 5.465882
S 1.859590 7.872598 0.953956
S 4.443293 3.487434 0.953956
S 4.443293 5.282895 5.465882
S 6.302883 0.415038 6.767888
S 6.302883 8.355290 2.255963
S 8.162473 3.487434 3.557969
S 8.162473 5.282895 8.069894
S 10.746176 0.897731 8.069894
S 10.746176 7.872598 3.557969
O 0.447026 1.193247 5.221290
O 0.447026 7.577082 0.709365
O 0.694200 4.777382 3.265713
O 0.694200 3.992946 7.777639
O 1.011096 3.080429 1.595047
O 1.011096 5.689900 6.106972
O 2.054803 0.585025 1.031679
O 2.054803 8.185304 5.543604
O 2.313120 1.505488 6.758945
O 2.313120 7.264840 2.247020
O 2.703193 7.326584 8.867151
O 2.703193 1.443745 4.355226
O 3.599690 2.941419 8.867151
O 3.599690 5.828910 4.355226
O 3.989763 5.890653 6.758945
O 3.989763 2.879676 2.247020
O 4.248080 3.800140 5.543604
O 4.248080 4.970189 1.031679
O 5.291787 1.304735 6.106972
O 5.291787 7.465593 1.595047
O 5.608684 0.392218 3.265713
O 5.608684 8.378111 7.777639
O 5.855857 5.578411 5.221290
O 5.855857 3.191917 0.709365
O 6.749909 3.191917 3.802560
O 6.749909 5.578411 8.314485
O 6.997083 0.392218 1.246212
O 6.997083 8.378111 5.758137
O 7.313979 1.304735 7.428804
O 7.313979 7.465593 2.916878
O 8.357686 3.800140 7.992172
O 8.357686 4.970189 3.480246
O 8.616003 2.879676 2.264905
O 8.616003 5.890653 6.776830
O 9.006076 2.941419 4.668624
O 9.006076 5.828910 0.156699
O 9.902573 1.443745 0.156699
O 9.902573 7.326584 4.668624
O 10.292646 1.505488 6.776830
O 10.292646 7.264840 2.264905
O 10.550963 0.585025 3.480246
O 10.550963 8.185304 7.992172
O 11.594670 3.080429 2.916878
O 11.594670 5.689900 7.428804
O 11.911567 3.992946 5.758137
O 11.911567 4.777382 1.246212
O 12.158740 1.193247 8.314485
O 12.158740 7.577082 3.802560
