28

Li 4.775673 10.186569 6.158423
Li 4.775673 10.186569 3.088162
Li 2.398438 5.152620 3.081468
Li 2.398438 5.152620 0.000727
Mn 2.292229 2.181405 4.623293
Mn 2.488447 8.048577 1.541098
Mn 4.663049 2.736717 1.541098
Cu 0.231428 7.440794 4.623293
P 0.388314 6.183810 1.541098
P 1.964530 0.893208 1.541098
P 2.800898 9.293481 4.623293
P 4.409150 4.118451 4.623293
O 0.992254 4.737706 1.541098
O 1.034888 6.913880 0.310926
O 1.034888 6.913880 2.771270
O 1.155296 4.199769 4.623293
O 1.244669 9.282285 4.623293
O 1.341772 1.648417 0.304835
O 1.341772 1.648417 2.777360
O 1.360950 9.919169 1.541098
O 3.363615 0.295120 4.623293
O 3.420812 8.592657 3.366904
O 3.420812 8.592657 5.879682
O 3.502401 0.876359 1.541098
O 3.643762 6.042676 1.541098
O 3.748363 3.420419 3.390464
O 3.748363 3.420419 5.856122
O 3.867205 5.599710 4.623293
