28

Li 2.018923 2.560248 8.413417
Li 6.108726 2.375797 9.175312
Li 0.000294 5.299499 4.751556
Li 4.054161 -0.179881 3.625058
Mn 4.150819 2.466610 1.696079
Mn 5.183521 1.068678 6.576732
Mn 5.184398 -1.533992 6.669235
Fe 2.214483 2.551118 4.673006
Fe 4.295669 -0.190837 9.361960
Sb 1.047356 3.917527 1.914983
Sb 1.047801 1.290019 2.011356
Sb 2.156600 -0.096770 6.882885
O 1.194343 3.974490 5.604399
O 0.209369 2.640859 3.214269
O 1.929300 2.565386 0.764749
O 0.122271 -0.005440 3.142097
O 0.059437 -0.004812 7.892952
O 1.192626 1.218736 5.707132
O 2.873570 3.729915 3.024261
O 2.872561 1.315961 3.113483
O 1.952807 -0.086837 0.905965
O 4.299134 2.458243 5.465986
O 3.156121 1.053773 7.962971
O 3.159793 -1.334908 8.051584
O 4.140407 -0.183212 5.654504
O 5.417468 1.110299 0.548359
O 5.985416 -0.270663 7.649278
O 5.419460 -1.595674 0.646063
