56

Sr 3.430726 2.539729 1.024542
Li 4.405240 6.725963 5.286380
Li 4.404932 1.627604 3.760238
Li 0.010894 7.637673 10.494667
Li 0.027437 2.555211 8.985893
La 7.809154 11.776216 7.084520
La 5.384953 5.837273 8.038835
La 5.395565 10.875636 9.539737
La 7.814970 6.724604 5.592030
La 5.581103 4.608618 3.289039
La 1.231495 5.522702 8.524859
La 1.241535 10.643326 10.056479
La 5.598377 9.731912 4.813339
La 7.580612 7.888272 2.079443
La 3.158311 3.725686 5.754280
La 3.175971 8.815802 7.284685
La 7.607750 12.981886 3.600256
La 3.410743 7.625759 2.554009
La 0.992666 6.733179 5.001248
La 1.030997 1.653922 3.453213
Co 6.602228 3.710420 6.053459
Co 6.597916 8.802235 7.567065
Co 2.191647 4.625366 3.024786
Co 2.199452 9.729029 4.542930
O 7.666065 4.731974 7.156856
O 7.673676 9.826449 8.675707
O 7.674151 12.435192 9.436026
O 7.665950 7.322021 7.938446
O 8.180916 9.386565 5.964972
O 8.019278 4.233493 4.619318
O 5.236118 3.206150 7.436044
O 5.028774 8.223020 9.155131
O 5.538637 5.175537 5.680941
O 5.536613 2.688209 4.951860
O 5.525182 7.779138 6.455359
O 5.521548 10.279372 7.204117
O 2.819282 6.121074 6.910149
O 7.198352 10.310233 3.201841
O 2.781796 1.040887 5.403864
O 7.206791 5.192885 1.719039
O 1.589759 8.222636 8.898504
O 6.062473 12.384272 5.229556
O 1.534586 3.153532 7.332203
O 5.982925 7.306171 3.687923
O 3.265990 5.654558 4.140603
O 3.268067 8.248072 4.908142
O 3.250450 10.733427 5.677918
O 3.247670 3.149479 3.431788
O 3.782294 5.262291 1.432768
O 3.786826 10.265200 2.918598
O 0.631674 9.155442 6.147603
O 0.606279 4.035038 4.611287
O 1.089400 3.602051 1.941664
O 1.121518 6.105764 2.661105
O 1.120911 8.698287 3.431360
O 1.088784 0.997931 1.172747
