42

Mn 0.916097 2.115432 10.307887
Mn 5.069345 4.280348 6.038028
Mn 1.363018 6.540532 7.490389
Mn 0.265948 3.863102 14.376697
Mn 3.972276 1.602917 12.924336
Mn 4.419197 6.028017 10.106838
P 2.948241 2.494467 3.153474
P 1.503240 5.390612 10.759953
P 3.235338 4.680581 13.559274
P 0.893443 0.946590 13.254468
P 3.832053 2.752838 9.654772
P 4.441851 7.196859 7.160257
P 2.099956 3.462868 6.855451
P 2.387053 5.648983 17.261251
O 4.000478 5.631378 17.738278
O 1.766601 1.489679 12.378600
O 1.879699 6.011810 2.535253
O 2.109532 6.787037 16.262543
O 1.097667 4.488532 7.045112
O 3.568693 6.653770 8.036125
O 3.083016 2.099079 10.543045
O 4.237626 3.654918 13.369613
O 2.828495 5.264850 12.110187
O 5.287356 7.836831 16.875363
O 0.053902 1.944352 13.754841
O 4.060623 5.815759 14.667523
O 5.281391 6.199097 6.659884
O 1.891111 4.072903 13.705198
O 0.519204 6.259097 11.265328
O 2.252278 6.044370 9.871680
O 1.589720 4.394120 16.360990
O 0.047938 0.306618 3.539362
O 4.816090 1.884352 9.149397
O 1.274671 2.327690 5.747202
O 4.600779 4.086951 10.350398
O 3.745574 3.749329 4.053735
O 0.734515 4.056498 10.064327
O 3.444188 4.070548 6.709530
O 2.506798 2.878599 8.304538
O 3.455595 2.131639 17.879472
O 1.334816 2.512072 2.676447
O 3.225761 1.356413 4.152182
