20

Li 1.684729 1.469696 1.297704
Li 5.149928 4.492609 3.890676
V 1.340304 3.964638 4.630967
V 2.678475 5.132010 1.915813
V 4.156182 0.830296 3.272567
V 5.494354 1.997667 0.557413
Ni 0.572526 0.499450 4.007110
Ni 6.262132 5.462855 1.181270
O 0.117385 5.403565 4.514452
O 0.657070 2.369945 4.747660
O 1.377286 6.502656 1.801288
O 2.524278 4.085513 3.349492
O 2.466969 0.355354 3.216221
O 2.413160 3.988578 0.671203
O 4.421497 1.973727 4.517177
O 4.367688 5.606952 1.972159
O 4.310379 1.876792 1.838888
O 5.457371 -0.540351 3.387092
O 6.177587 3.592361 0.440720
O 6.717272 0.558741 0.673929
