40

Li 1.760343 4.778563 5.605332
Li 4.098992 2.077146 1.875942
Li 7.619678 3.325687 5.605332
Li 9.958326 0.624270 1.875942
V 1.472521 2.025911 3.907848
V 1.472416 2.025884 7.302793
V 4.386919 4.727301 3.573404
V 4.386814 4.727328 0.178459
V 7.331856 0.675505 3.907848
V 7.331751 0.675532 7.302793
V 10.246254 3.376949 3.573404
V 10.246149 3.376922 0.178459
F 0.493391 3.804989 7.290590
F 0.493286 3.805118 3.920125
F 0.773198 1.025236 5.605384
F 1.474865 1.761832 1.876308
F 2.158602 2.891105 5.605279
F 2.669595 0.317881 4.098397
F 2.669033 0.317789 7.112266
F 3.190302 3.019206 3.382877
F 3.189740 3.019298 0.369008
F 3.700733 0.189688 1.875890
F 4.384470 4.463248 5.605697
F 5.086137 3.726653 1.875995
F 5.366049 1.103702 0.190736
F 5.365944 1.103572 3.561201
F 6.352726 4.299262 7.290590
F 6.352621 4.299132 3.920125
F 6.632533 1.676180 5.605384
F 7.334200 0.939585 1.876308
F 8.017937 5.213145 5.605279
F 8.528930 2.383536 4.098397
F 8.528367 2.383627 7.112266
F 9.049637 5.085044 3.382877
F 9.049075 5.084952 0.369008
F 9.560067 2.511729 1.875890
F 10.243805 3.641002 5.605697
F 10.945472 4.377597 1.875995
F 11.225384 1.597715 0.190736
F 11.225279 1.597845 3.561201
