28

Li 0.000000 0.000000 0.000000
Li 0.000000 2.971891 0.000000
Li 2.230061 4.457836 2.248352
Li 5.082275 0.000000 2.356582
Li 5.082275 2.971891 2.356582
Li 7.934488 1.485945 2.464812
Fe 2.834161 1.485945 4.695795
Fe 7.330388 4.457836 0.017369
P 0.990871 1.485945 1.950247
P 4.128210 4.457836 4.400256
P 6.036340 1.485945 0.312908
P 9.173679 4.457836 2.762916
O 0.456256 4.457836 3.296813
O 1.110284 1.485945 3.498257
O 1.745934 0.279738 1.274845
O 1.745934 2.692153 1.274845
O 3.421926 3.201969 3.779797
O 3.421926 5.713704 3.779797
O 4.169630 4.457836 1.178719
O 4.593258 1.485945 0.958717
O 5.571291 4.457836 3.754447
O 5.994919 1.485945 3.534445
O 6.742623 0.230078 0.933367
O 6.742623 2.741813 0.933367
O 8.418615 3.251629 3.438318
O 8.418615 5.664044 3.438318
O 9.054266 4.457836 1.214907
O 9.708293 1.485945 1.416351
