14

Li 0.000000 0.000000 0.000000
Li 0.000000 0.000000 2.529982
Fe 0.000000 2.877312 4.036851
Fe 2.551598 3.698638 2.751230
Fe 2.551598 3.698638 5.322471
Co 0.000000 2.877312 1.506869
O 1.115028 2.052251 2.611800
O 1.115028 2.052251 5.262842
O 1.245481 4.497713 6.669348
O 1.270492 4.522147 4.140741
O 3.832704 2.875130 3.932960
O 3.857715 2.899564 1.404353
O 3.988168 5.345025 2.810859
O 3.988168 5.345025 5.461900
