17

Li 1.444867 5.992438 5.818785
V 5.211148 5.694068 5.743574
Te 2.683622 7.399765 8.025540
Te 2.616791 2.899287 4.946531
Te 0.029059 4.463134 7.175649
O 2.068032 5.099741 4.620894
O 1.321523 2.562725 4.773764
O 0.769406 3.507929 5.739803
O 4.728673 6.766991 7.248961
O 1.855046 9.075634 7.412262
O 3.906317 7.543155 8.044041
O 1.290036 7.086054 7.799308
O 3.403314 5.381014 8.435838
O 0.606787 7.905287 8.704301
O 4.640762 11.197096 10.248037
O 3.967437 12.197233 11.179024
O 3.264628 9.584006 11.324820
