19

Ni 2.300509 2.625477 5.157050
Ni 2.893720 1.467352 2.957746
Ni 4.181383 6.241806 6.125857
Ni 5.336376 4.069892 1.904820
Ni 4.758193 5.155949 4.015496
Ni 5.854274 10.028322 7.109167
Ni 0.675548 6.034204 5.175040
Ni 1.268699 4.874379 2.974742
Ni 3.666126 7.552856 2.139287
S 4.620501 2.900104 3.933896
S 0.064711 2.148332 6.054087
S 1.053453 2.700883 3.143309
S 3.648345 2.466581 0.977581
S 2.516220 4.799970 4.988130
S 2.272473 7.637613 6.185009
S 3.504187 5.351887 2.077181
S 4.897532 7.411526 4.097772
S 5.870033 7.845423 1.039040
S 1.297461 7.131109 3.162475
