18

Mn 1.378943 2.281523 4.665728
Mn 1.820460 2.168880 0.925001
Mn 3.800811 5.650368 10.081134
Mn 4.242328 5.537725 6.340408
F 0.999057 2.657408 6.819202
F 1.301988 1.811079 2.728234
F 0.257791 3.301611 1.925161
F 2.539280 2.264456 8.586567
F 2.079786 4.694222 9.830674
F 1.353068 3.683350 4.797502
F 1.787811 5.429886 7.139467
F 3.833459 2.389363 3.866669
F 4.268203 4.135898 6.208634
F 3.541485 3.125026 1.175462
F 3.081991 5.554792 2.419569
F 5.363479 4.517637 9.080975
F 4.319283 6.008170 8.277901
F 4.622214 5.161840 4.186934
