12

Li -0.000078 0.943009 4.938966
Li 0.000416 3.868348 5.017881
V 0.001814 2.405768 4.975856
V 0.002386 2.406244 2.278672
F 1.966738 1.794274 3.332715
F 2.913707 3.792424 -0.925981
F 1.968246 2.839605 1.625390
F 2.912601 5.540963 3.431584
F 3.592932 3.119932 0.534779
F 4.535415 5.119547 -3.716179
F 3.592802 1.370588 -3.821637
F 4.534875 4.071127 -2.013379
