83

Ba 2.183913 0.226380 2.844314
Ba 0.487132 5.398906 4.817594
Ba 4.008501 3.764139 4.544644
Ba 6.464730 0.063634 10.700645
Ba 7.552131 2.201836 4.381377
Ba 2.968339 1.643425 10.879461
Ba 11.054485 0.527707 4.240325
Ba 9.356810 5.705018 6.215686
Ba 4.712922 5.140220 12.634359
Ba 1.219384 6.728422 12.793399
Ba 11.716051 1.982861 12.255697
Ba 5.780586 7.279104 6.302163
Ba 8.216317 3.559612 12.437486
Ba 9.964304 7.068160 14.185637
Y 6.994570 1.132946 7.556466
Y 3.496954 2.696009 7.727053
Y 12.221500 3.130206 9.099891
Y 10.535910 -0.515663 7.297664
Y 5.243558 6.202492 9.485544
Y 1.668166 7.779205 9.580540
Y 8.842092 4.667236 9.271109
Cu 0.009404 0.019087 12.068418
Cu 8.745839 0.333912 13.515465
Cu 1.748465 3.504714 1.751694
Cu 5.240583 1.911148 1.574451
Cu 4.124199 -0.308889 8.157522
Cu 4.612542 0.645084 5.341666
Cu 0.632375 1.284132 8.345327
Cu 1.118404 2.233132 5.584249
Cu 9.835016 2.523736 6.952104
Cu 2.888738 5.711317 7.311522
Cu 9.391082 1.604702 9.724591
Cu 5.899760 3.199268 9.910087
Cu 3.499501 6.999711 3.500051
Cu 10.494303 3.826596 3.142570
Cu 7.002063 5.416802 3.329970
Cu 6.360824 4.146857 7.083525
Cu 2.384207 4.775572 10.095244
Cu 11.125282 5.096831 11.523596
Cu 7.636544 6.689590 11.662856
Cu 8.072408 7.630745 8.884438
O 0.257365 0.515303 4.900173
O 2.856743 1.386160 5.595946
O 1.490720 2.984481 3.291384
O 0.272205 0.543095 10.519428
O 8.484959 -0.183668 2.931732
O 6.327103 -0.208269 5.427533
O 2.410520 0.548321 8.085862
O 4.979911 1.389042 3.119226
O 8.532565 -0.085487 8.681712
O 5.454725 2.332269 6.393073
O 8.937586 0.760524 6.203771
O 1.980227 3.918085 6.555567
O 5.037987 1.497835 8.878874
O 1.550154 3.093745 9.041971
O 11.580199 1.719127 6.975525
O 4.587050 4.876868 7.366918
O 2.012418 4.022118 12.321568
O 1.192985 6.403876 7.556033
O 8.058964 3.293469 7.162789
O 6.739996 4.894349 4.872748
O 4.164777 4.034777 9.852260
O 10.234514 3.305532 4.681540
O 7.668612 2.446410 9.661096
O 0.654807 5.618921 10.042448
O 11.163485 0.880614 9.466516
O 9.007967 0.853861 11.966918
O 3.241058 6.479214 5.043129
O 5.506262 2.436468 12.152463
O 10.285193 3.410968 10.469805
O 10.647004 4.137113 7.936747
O 3.719227 7.419233 8.316481
O 3.289975 6.572808 10.800061
O 7.198231 5.842758 8.125983
O 6.788178 5.003652 10.624485
O 10.755881 4.357044 13.719660
O 9.713600 6.830030 8.957859
O 11.997599 6.836783 6.359288
O 7.256074 5.939492 13.906049
O 3.759609 7.522895 14.071101
O 5.909605 7.536678 11.593718
O 9.410857 5.943245 11.431744
O 12.027389 6.903673 12.213408
