58

Li 0.875651 5.768260 2.929603
Li 0.875651 1.196162 5.716185
Li 0.875651 5.768260 7.240218
Li 6.155055 3.835863 4.045272
Li 3.219220 8.969634 6.691433
Li 3.219220 4.397536 9.478015
Li 6.155055 8.407962 5.569305
Li 6.155055 3.835863 8.355887
Li 8.498624 7.037238 7.807102
Li 3.219220 8.969634 11.002048
Li 8.498624 7.037238 12.117717
Li 8.498624 11.609336 9.331135
Co 0.000000 4.059180 5.180091
Co 4.687137 6.402749 3.696628
Co 4.687137 2.343569 6.170600
Co 4.687137 6.402749 7.523660
C 2.586240 3.532870 4.151360
C 2.586240 3.532870 7.185836
C 2.586240 6.751418 5.224209
C 6.302700 5.391100 6.009590
C 3.071575 7.414398 9.037730
C 6.788034 6.054079 9.823111
C 6.788034 9.272627 7.861484
C 6.788034 9.272627 10.895960
S 1.171784 1.600687 1.880915
S 8.202490 11.204810 13.166405
O 0.561472 0.766985 0.901259
O 0.561472 0.766985 2.894538
O 0.561472 2.881177 1.605990
O 3.002730 1.987614 2.121888
O 1.240282 3.936913 3.913240
O 2.679140 2.413686 4.824691
O 1.240282 2.940344 6.547359
O 3.829879 4.235142 3.701026
O 1.240282 6.086590 5.569373
O 2.679140 6.806019 4.174405
O 3.829879 2.989055 7.426795
O 2.679140 4.656342 7.598978
O 6.312112 4.230172 5.701603
O 3.829879 7.381388 5.924597
O 6.312112 6.472828 5.274333
O 3.062163 7.329239 7.990781
O 6.312112 5.476259 7.056539
O 3.062163 6.332669 9.772988
O 5.544396 5.424109 9.122723
O 3.062163 8.575326 9.345717
O 6.695135 8.149155 7.448342
O 5.544396 9.816442 7.620525
O 6.695135 5.999479 10.872915
O 8.133992 6.718907 9.477947
O 5.544396 8.570355 11.346294
O 8.133992 9.865153 8.499961
O 6.695135 10.391812 10.222629
O 8.133992 8.868584 11.134080
O 6.371544 10.817883 12.925432
O 8.812802 9.924321 13.441330
O 8.812802 12.038512 12.152782
O 8.812802 12.038512 14.146061
