82

Co 10.199044 6.685837 10.103352
Co 10.981939 10.410595 11.681230
Co 1.862374 1.286164 3.315794
Co 7.952961 2.494695 3.623431
Co 4.449260 9.012619 11.265496
Co 12.507675 4.304392 1.677432
Co 8.735856 6.219453 5.201310
Co 3.979763 5.238896 9.704453
Co 2.331871 5.059887 4.876837
Co 6.427225 8.600897 13.627229
P 7.011467 6.510199 10.738377
P 2.594346 3.300270 1.951155
P 10.716358 9.547112 8.765964
P 8.218542 3.358178 6.538697
P 0.736404 5.065468 10.347692
P 12.142724 4.288127 8.481949
P 3.717287 6.998513 12.630135
P 9.933918 8.389835 12.938294
P 5.815943 2.607235 7.913622
P 1.881245 2.268990 6.235784
P 0.495690 7.691548 6.667669
P 9.000982 4.515454 2.366367
P 4.430388 8.029793 8.345507
P 11.923433 6.395090 4.566285
P 6.792176 8.617163 6.822712
P 5.575230 5.233315 4.233599
O 8.569544 3.013064 1.997233
O 8.165777 7.706597 6.453468
O 12.617006 9.133288 11.484843
O 8.621615 7.960247 3.992656
O 3.837574 6.623004 8.483003
O 6.317895 3.772002 3.819819
O 3.838597 3.733941 10.893295
O 6.577176 6.375700 4.663436
O 4.958040 5.748723 3.019938
O 11.991561 3.028170 7.529211
O 12.531306 5.018794 3.739053
O 6.567646 1.594228 8.720167
O 1.693765 6.716115 6.035978
O 0.506824 2.691793 7.140432
O 0.896530 8.565085 7.837825
O 2.775516 1.224620 6.915854
O 10.365356 9.892226 13.307428
O 4.617869 3.582668 8.545313
O 1.353593 4.550060 11.561353
O 3.536118 9.074172 7.665442
O 6.879037 3.682366 7.466264
O 10.769123 5.198693 8.851193
O 11.209764 7.293549 3.571517
O 6.403594 7.886496 11.565608
O 4.890418 8.793249 9.539707
O 10.735760 6.150934 5.435544
O 1.421216 1.505534 5.041583
O 6.943340 9.877120 7.775450
O 12.357724 6.529589 10.641225
O 7.872576 2.447368 5.366268
O 3.545762 7.122919 11.261205
O 2.765871 3.175864 3.320086
O 9.095644 4.696353 3.764732
O 2.474059 3.675779 6.098288
O 2.473037 6.564842 3.687995
O 11.062324 10.457922 9.938393
O 5.907285 5.667260 10.099825
O 0.232647 1.183301 8.889845
O 4.346367 8.428838 13.133759
O 12.055864 9.222924 7.838397
O 6.078987 9.115482 5.691446
O 9.839256 8.208936 11.539930
O 10.302151 8.097044 8.979494
O 5.415104 1.733698 6.743466
O 9.248550 2.507056 7.248862
O 9.686350 10.398234 8.055799
O 0.404348 4.631523 4.481466
O 10.313285 4.945042 11.312005
O 5.804809 7.606990 7.440858
O 1.965266 1.869945 1.447532
O 4.318255 5.178598 5.093392
O 8.632749 4.808246 6.325168
O 7.725136 5.611741 11.733145
O 1.993378 5.120185 9.487899
O 12.367254 11.311062 6.584494
O 8.199140 6.754356 9.869118
