76

Li 2.641150 6.562322 1.934280
Li 2.102983 4.339978 4.731757
Li 2.536467 6.576127 -2.798342
Li 2.106279 4.280579 0.013941
Li 3.152900 -0.166785 6.765893
Li 2.719134 2.041399 3.416866
Li 7.867247 3.949393 -0.699391
Li 3.152858 -0.158677 2.070048
Li 7.786355 3.948651 -5.435364
Li 7.328149 1.690829 -2.598204
Li 8.345080 -2.761765 4.149015
Li 8.286367 -2.751207 -0.524679
V 0.002563 6.672306 4.703723
V 0.045677 6.660092 -0.007938
V 0.187197 -0.075798 4.635191
V 5.345815 4.046494 2.030925
V 5.246603 1.922949 0.674688
V 5.099256 -0.272926 3.589241
V 0.196644 -0.048746 -0.054103
V 5.286076 4.064716 -2.619302
V 5.198352 1.933570 -4.010901
V 5.055368 -0.277302 -1.055511
V 5.404423 -2.650652 2.015281
V 10.409374 -0.668397 -1.958567
V 10.263376 -2.883547 1.011418
V 5.400813 -2.654390 -2.664881
V 10.379306 -0.674474 -6.631797
V 10.266808 -2.893542 -3.688553
O 0.751958 5.826230 3.483216
O 0.712328 5.843583 -1.218800
O 5.896013 3.279085 0.794796
O 2.604962 -0.759379 4.321343
O 4.445076 1.065141 2.420816
O 5.965512 3.244713 -3.831692
O 2.601499 -0.747328 -0.351705
O 4.717967 1.018427 -2.337360
O 7.816726 -3.365949 1.674738
O 9.951461 -1.600361 -0.289489
O 7.802540 -3.369549 -2.985808
O 9.946178 -1.591789 -4.956506
F 0.755787 5.247036 5.982357
F 2.654426 7.138108 4.034437
F 0.774410 5.236905 1.292566
F 0.718501 0.784402 7.386227
F 2.530828 2.704131 5.569089
F 2.658736 7.144066 -0.638396
F 4.498327 5.009674 3.422170
F 0.633298 1.403246 4.851052
F 2.659856 3.692290 2.920062
F 4.542446 5.604325 0.933369
F 0.680409 0.759264 2.755265
F 5.852857 2.728088 3.418328
F 2.521422 2.678352 0.976281
F 4.383203 0.623858 4.960816
F 4.522202 5.006173 -1.239533
F 7.923240 4.551815 1.380102
F 0.467820 1.379732 0.256509
F 2.649865 3.810248 -1.750750
F 4.524357 5.610838 -3.747071
F 6.005069 2.647603 -1.335041
F 5.868686 -1.863248 4.803774
F 4.490857 0.583661 0.310435
F 7.718310 -0.032439 3.026161
F 7.919442 4.544244 -3.259683
F 9.895354 2.444647 0.697453
F 5.699190 -1.200622 2.279790
F 7.886780 1.156370 0.224296
F 9.760362 3.011198 -1.718441
F 5.915681 -1.839625 0.111804
F 7.773058 0.089060 -1.707192
F 9.675494 -2.051856 2.378117
F 9.768554 2.366520 -3.852968
F 5.690570 -1.218372 -2.372998
F 7.881570 1.186797 -4.363894
F 9.768093 3.001928 -6.376625
F 9.720355 -2.066710 -2.291712
