24

Li 1.243850 1.378518 4.048512
Li 6.286968 7.095271 1.025679
V 1.378938 4.972695 3.705835
V 2.444903 6.317112 1.215738
V 5.161050 5.794475 3.804437
V 2.369768 2.679315 1.269754
V 5.085908 2.156676 3.858453
V 6.151880 3.501095 1.368355
O 2.243837 4.492521 2.095461
O 5.176925 7.518932 4.467640
O 2.353893 0.954857 0.606550
O 5.286981 3.981268 2.978729
F 1.451362 6.813887 2.952883
F 0.681388 5.790788 0.239689
F 3.209996 5.460038 4.652091
F 1.453561 3.253733 4.765187
F 0.515891 2.302940 2.157954
F 4.307319 6.422769 2.067953
F 3.223499 2.051020 3.006238
F 7.014927 6.170850 2.916237
F 6.077257 5.220057 0.309003
F 4.320822 3.013752 0.422099
F 6.849430 2.683001 4.834501
F 6.079456 1.659903 2.121308
