20

Li 0.000000 0.000000 6.158307
Li 0.000000 2.525823 7.421842
Li 2.677592 -0.019238 2.743960
Li 2.677592 2.506585 1.777476
Nb 0.000000 0.000000 0.911857
Te 0.000000 2.525823 3.636875
Te 2.677592 -0.019238 8.192896
Te 2.677592 2.506585 5.383607
O 0.785279 1.324865 2.307973
O 0.820173 1.439383 5.077727
O 0.914398 1.052472 8.375584
O 1.687959 3.521493 3.713105
O 1.740847 4.046146 0.886303
O 1.760447 3.851451 6.829606
O 3.594737 1.161718 6.829606
O 3.614337 0.967023 0.886303
O 3.667225 1.491676 3.713105
O 4.440786 3.960697 8.375584
O 4.535011 3.573786 5.077727
O 4.569905 3.688304 2.307973
