36

Mn 0.624756 5.072049 6.369900
Mn 3.623688 8.198922 9.932454
Mn 7.875229 6.666625 7.388972
Cr 4.901846 3.545374 3.830012
Co -0.003005 -0.000661 -0.000422
Co 4.260411 5.871633 6.880907
P 2.112343 2.929090 5.478426
P 2.112343 8.175249 5.158172
P 2.112343 5.093302 9.100369
P 6.379876 6.655337 4.651068
P 6.379876 3.550940 8.595222
P 6.379876 8.806980 8.290085
O 0.522511 1.141731 2.707673
O 0.522511 4.058213 2.338939
O 0.522511 2.546782 4.596857
O 1.933683 1.652163 6.397643
O 3.678893 3.284026 5.035118
O 2.271312 4.247451 6.058802
O 1.933683 7.943162 3.900796
O 2.271312 6.782450 5.923518
O 4.790452 7.020377 4.015888
O 2.271312 5.272610 7.821658
O 6.564198 5.283833 4.371012
O 4.790452 2.516785 8.118547
O 3.678893 9.215474 5.616778
O 1.933683 6.484425 9.363177
O 6.206232 6.461171 5.916643
O 3.678893 4.731712 9.745605
O 6.206232 4.932833 7.843519
O 6.564198 3.758774 9.851743
O 6.206232 7.504694 7.703003
O 4.790452 8.427426 8.731751
O 6.564198 10.092276 7.391358
O 7.958580 9.150468 9.198679
O 7.958580 7.730902 11.418858
O 7.958580 10.575467 11.007653
