22

Li 2.248910 5.982475 4.204907
Li 2.554818 2.910740 3.763459
Li 3.455933 3.791049 1.042259
Li 5.435958 1.373684 0.221162
Li 6.017433 -1.649421 -0.295025
Li 7.188147 -0.427475 2.245555
Mn 1.662702 1.428651 1.222637
Mn 6.407976 2.953343 2.703634
F 0.216655 5.495407 3.525822
F 1.661090 -0.108185 0.567296
F 0.831327 2.136544 4.738318
F 1.753721 3.019267 1.924911
F 2.954761 4.391490 4.506514
F 2.519263 0.738544 2.757047
F 3.417851 1.899035 0.521738
F 4.514262 2.709892 3.154653
F 5.584822 3.637815 1.081491
F 5.079439 -0.246690 -0.048771
F 6.404078 1.355329 2.033334
F 6.973802 2.272819 -0.801488
F 6.364471 4.625753 3.239937
F 7.871677 -1.047220 0.583698
