68

Cr 2.080151 10.384880 0.261851
Cr 2.058877 7.143769 4.575851
Cr 2.088694 4.478789 8.342930
Cr 2.050334 1.321055 4.028930
Cr 6.227722 10.278634 4.599069
Cr 6.189361 7.120900 0.285069
Cr 6.219179 4.455921 4.052148
Cr 6.197904 1.214810 8.366148
S 0.328001 5.770968 2.136068
S 0.886456 9.944573 3.280132
S 0.952995 1.690950 0.975827
S 3.252572 7.584075 7.594132
S 3.186033 4.108895 5.289826
S 3.811026 0.028877 6.450068
S 4.467029 11.570813 2.177931
S 5.092022 7.490794 3.338173
S 5.025483 4.015614 1.033867
S 7.325061 9.908740 7.652172
S 7.391600 1.655116 5.347867
S 7.950054 5.828721 6.491931
O 0.446113 5.237670 7.517800
O 0.446245 10.532461 7.646745
O 0.458969 7.043248 5.849671
O 0.485856 2.174519 4.954810
O 0.774768 6.790692 3.107779
O 0.988276 9.731304 1.812941
O 1.094442 11.368725 3.587427
O 1.037687 2.819195 0.028015
O 1.342088 2.149318 2.328645
O 1.529743 5.153211 1.521522
O 1.874110 9.121042 4.029698
O 2.264917 8.407606 8.343698
O 1.897670 0.624236 0.537990
O 2.241358 5.175609 4.851990
O 2.609285 0.646634 5.835521
O 2.796940 3.650527 6.642645
O 3.044586 6.159924 7.901427
O 3.101340 2.980650 4.342015
O 3.150752 7.797345 6.126941
O 3.364260 10.737956 7.421779
O 3.680059 10.485400 1.535672
O 3.692783 6.996188 3.332746
O 3.653172 3.625326 0.640810
O 3.692915 0.562174 3.203800
O 4.585140 11.037515 5.424199
O 4.624883 7.974364 7.987189
O 4.585273 4.603502 5.295253
O 4.597996 1.114289 7.092327
O 4.913796 0.861733 1.206220
O 5.127303 3.802345 2.501058
O 5.176715 8.619039 4.285984
O 5.233470 5.439766 0.726572
O 5.481116 7.949163 1.985354
O 5.668771 10.953056 2.792478
O 6.036698 6.424080 3.776009
O 6.380386 10.975454 8.090009
O 6.013138 3.192083 0.284301
O 6.403945 2.478647 4.598301
O 6.748312 6.446479 7.106477
O 6.935968 9.450371 6.299354
O 7.240368 8.780495 8.599984
O 7.183614 0.230965 5.040572
O 7.289780 1.868386 6.815058
O 7.503288 4.808997 5.520220
O 7.792200 9.425170 3.673189
O 7.819087 4.556441 2.778328
O 7.831810 1.067229 0.981254
O 7.831943 6.362019 1.110199
