68

Li 7.321966 3.296616 3.182973
Li 7.421793 5.432502 5.203384
Li 7.545445 7.425047 7.314550
Li 5.894236 5.882832 6.847561
Li 6.802920 1.680311 1.692986
Li 5.201637 3.180447 1.168701
Li 5.297373 1.155445 3.312966
Li 5.423503 7.527887 5.304609
Li 3.772353 7.994611 3.765074
Li 4.683415 4.674733 8.038077
Li 3.074823 5.186670 1.059043
Li 3.177188 3.048334 7.519009
Li 3.301281 1.056391 5.410468
Li 1.650921 2.595421 5.877030
Li 2.563807 6.806391 2.552651
Li 0.957049 5.301867 3.067953
Li 1.053226 7.326013 0.927667
Li 1.176700 0.950035 7.420095
Li 8.011060 0.490662 0.480734
Li 0.443079 3.805502 4.685722
Cr 7.435611 7.440067 3.160983
Cr 7.417116 5.300136 1.040160
Cr 7.454607 1.078634 5.301659
Cr 5.294784 5.320293 3.179196
Cr 5.313771 3.199751 5.320265
Cr 5.332929 1.059625 7.440104
Cr 3.173402 3.180368 3.199558
Cr 3.191974 1.040641 1.078975
Cr 3.210477 7.402159 7.420865
Cr 1.088544 7.421087 5.282166
Cr 1.050917 3.160172 1.060343
Cr 1.069590 5.281063 7.401977
Ni 7.436138 3.180018 7.421947
Ni 5.313678 7.420863 1.058760
Ni 3.191855 5.300657 5.300244
Ni 1.069828 1.059687 3.181019
O 7.506749 3.269748 1.067319
O 7.530422 5.305352 7.491365
O 7.508709 7.494397 5.227839
O 7.431299 0.988700 3.275056
O 7.439796 7.328701 1.127333
O 7.365399 1.056430 7.327177
O 7.364287 5.370224 3.110394
O 7.340368 3.110353 5.296960
O 5.384994 5.293849 1.149219
O 5.408183 7.351674 3.184798
O 5.386606 1.132749 5.374875
O 5.309553 3.087087 7.350950
O 5.318024 5.233048 5.207930
O 5.243016 3.249543 3.249577
O 5.242922 7.515012 7.417381
O 5.218885 1.064595 0.988813
O 3.262559 5.210816 3.172476
O 3.286292 3.174924 5.230913
O 3.264843 0.986481 7.494631
O 3.187399 7.491881 0.964927
O 3.196345 1.151736 3.112396
O 3.121032 7.424329 5.395423
O 3.120573 3.110730 1.129132
O 3.095695 5.370702 7.425146
O 1.141220 3.186769 3.090270
O 1.164418 1.128631 1.055160
O 1.142765 7.347682 7.347290
O 1.065661 5.394235 5.371334
O 1.074047 3.247664 7.514330
O 0.998742 0.965538 5.304854
O 0.998164 5.230651 0.989626
O 0.974313 7.416345 3.250684
