56

Li 1.056573 7.420791 3.177471
Li 3.179588 1.059400 7.412431
Li 4.252655 0.020529 4.218743
Li 5.293589 5.303579 5.293467
Li 7.413749 3.185384 1.059514
Li 8.455013 8.469434 8.455876
Ti 1.009639 5.321390 1.105440
Ti 1.049905 3.089977 7.463941
Ti 1.143256 0.991444 5.309507
Ti 3.092362 7.488737 1.076988
Ti 3.187975 5.389114 3.230360
Ti 3.225886 3.157063 5.340602
Ti 5.267665 7.434218 7.340120
Ti 5.334329 1.104630 1.036277
Ti 5.339861 3.203081 3.180177
Ti 7.367078 5.286440 7.414016
Ti 7.373923 7.385834 5.272404
Ti 7.439621 1.056753 3.106035
Zn 0.008116 4.225372 4.242908
Zn 2.113052 6.352435 6.371925
Zn 2.122600 2.127288 2.136001
Zn 4.227129 4.253343 0.009500
Zn 6.335065 6.382596 2.113496
Zn 6.372933 2.107681 6.348999
O 0.904581 1.082568 3.312088
O 0.941196 7.567276 5.313279
O 0.958732 5.195639 7.514403
O 1.044314 1.225445 7.262236
O 1.084326 3.305754 0.910372
O 1.156794 3.084262 5.398232
O 1.181955 5.271758 3.030725
O 1.228041 7.269909 1.042899
O 3.008238 1.209781 5.278043
O 3.054417 3.208144 7.266457
O 3.078782 5.395411 1.164336
O 3.151360 5.173445 5.146581
O 3.191745 7.252907 3.027924
O 3.276335 3.283576 3.279365
O 3.295159 0.912203 1.078103
O 3.331046 7.396639 7.548063
O 5.151407 3.162291 5.181451
O 5.169266 5.152001 3.156940
O 5.185879 7.528027 0.954250
O 5.274671 3.039010 1.177091
O 5.307220 0.946647 7.560569
O 5.414099 1.183368 3.065010
O 5.438219 7.433209 5.458169
O 5.439303 5.416956 7.426610
O 7.268187 3.073320 3.191791
O 7.270076 1.057094 1.222727
O 7.292264 7.306153 7.300735
O 7.400389 7.542977 3.325844
O 7.433200 5.450835 5.412443
O 7.522289 0.962326 5.189741
O 7.538766 3.337615 7.392970
O 7.557243 5.327148 0.946403
