16

V 0.000016 0.000008 0.000010
V -0.000022 3.747678 5.145632
V 2.701176 0.004711 2.572919
V 2.701224 3.752359 2.572854
F 0.152704 5.622015 0.622674
F 1.024067 4.196767 3.515264
F 1.019054 7.049007 3.519369
F 1.682046 0.451134 0.946539
F 1.677098 3.303052 0.942509
F 2.548747 1.877812 3.195709
F 2.853621 5.626921 1.949988
F 3.720375 7.053591 4.199174
F 3.725281 4.201681 4.203194
F 4.383368 0.455718 1.626292
F 4.378322 3.307981 1.630403
F 5.249685 1.882703 4.523029
