12

Li 1.832456 2.312365 1.607876
Li 3.209770 4.050389 4.823628
Mn 0.000000 0.000000 0.000000
Mn 0.000000 0.000000 3.215752
F 1.185321 4.165487 4.823628
F 1.047170 3.991154 1.607876
F 3.914336 4.939476 3.337545
F 1.127891 1.423278 0.121793
F 3.914336 4.939476 6.309710
F 1.127891 1.423278 3.093958
F 3.856905 2.197266 1.607876
F 3.995057 2.371599 4.823628
