40

Li 0.199852 0.223353 7.161934
Li 6.406489 4.215978 5.848946
Li 4.044680 5.784938 6.583532
Li 2.044400 7.440261 7.593836
Li 5.650004 4.666729 9.247836
Li 7.177509 8.401966 6.649411
Mn 7.262237 9.971150 11.490111
Cr 1.195162 1.682031 1.891106
Cr 3.053020 4.233798 4.800387
Cr 5.470643 7.556691 8.670668
P 0.412740 5.896299 5.166245
P 3.843969 2.230795 7.239101
P 6.377872 6.507767 4.402638
P 2.120287 5.122867 9.059149
P 4.629148 9.544441 6.211504
P 8.152287 5.897103 8.236734
O 1.080592 2.820388 4.705263
O 2.554097 5.144815 3.236622
O 0.394598 7.172939 4.257301
O 4.529162 3.124949 4.506848
O 2.046477 5.495668 5.409119
O 0.167456 6.228429 6.338934
O 2.231505 1.612827 7.667153
O 3.856035 3.616588 6.472355
O 5.051937 5.672760 5.115051
O 1.732267 3.702280 8.698849
O 0.707659 5.901162 8.701685
O 3.162349 1.559959 2.969041
O 5.245833 2.631067 8.235171
O 7.710427 5.676926 4.687348
O 6.903847 7.896771 4.844900
O 3.462398 6.013802 8.364023
O 4.823503 8.182796 6.986389
O 6.263319 10.102216 5.741746
O 8.250247 5.545247 7.046839
O 6.500272 6.332684 8.024755
O 4.093592 8.712515 8.932821
O 7.997118 4.653067 9.185981
O 5.840504 6.519423 10.209777
O 7.542511 8.919446 8.636670
