30

Li 0.035595 0.014369 0.002366
Li 0.594204 2.912866 0.349274
Li 6.014164 -0.918681 0.012005
Li 2.987032 -0.480291 0.003176
Li 3.621345 2.474474 0.358102
Li 1.204051 6.027599 0.722257
Li 6.572773 1.979815 0.358912
Li 5.404317 3.760169 2.497328
Fe 4.221794 5.532774 0.724352
Fe 7.195191 5.013479 0.722744
Fe 1.807915 1.156921 2.124795
Fe 4.800453 0.837263 2.146702
Fe 2.386574 4.254994 2.495233
Fe 7.809896 0.231239 2.135748
Fe 8.424591 3.242585 2.496841
O 1.781367 1.198672 0.174006
O 4.827000 0.795513 0.187273
O 7.809896 0.231239 0.180639
O 5.452158 3.984598 0.569174
O 8.319437 3.329237 0.549705
O 2.520204 4.310240 0.549160
O 8.958382 -1.444591 1.964162
O 3.106451 -0.428008 1.966699
O 6.005405 -0.985620 1.959180
O 3.501926 2.422191 2.304798
O 1.156219 5.803169 2.650411
O 0.602972 2.979803 2.312317
O 6.661409 1.907069 2.307335
O 4.088172 5.477527 2.670425
O 7.300345 4.926827 2.669880
