28

Li 0.000000 0.000000 0.000000
Li 0.000000 3.256272 0.000000
Li 5.496002 0.000000 2.455144
Li 5.496002 3.256272 2.455144
V 2.397521 4.884409 2.273016
V 8.594483 1.628136 2.637273
Sn 3.019558 1.628136 4.737549
Sn 7.972445 4.884409 0.172740
P 0.815365 1.628136 2.047456
P 4.423358 4.884409 4.271617
P 6.568645 1.628136 0.638671
P 10.176638 4.884409 2.862833
O 0.586731 4.884409 3.473991
O 0.733738 1.628136 3.589182
O 1.599336 0.369626 1.487492
O 1.599336 2.886646 1.487492
O 3.720881 3.660024 3.586512
O 3.720881 6.108793 3.586512
O 4.299698 4.884409 0.963715
O 5.102708 1.628136 1.176813
O 5.889296 4.884409 3.733476
O 6.692305 1.628136 3.946573
O 7.271122 0.403752 1.323776
O 7.271122 2.852521 1.323776
O 9.392667 3.625898 3.422797
O 9.392667 6.142919 3.422797
O 10.258265 4.884409 1.321106
O 10.405272 1.628136 1.436298
