56

Na 0.976314 7.388086 3.801462
Na 3.556206 1.031136 8.297893
Na 5.508834 5.240747 5.191399
Na 8.088727 3.178475 0.694968
Cu 1.053748 0.832046 1.248029
Cu 3.478773 7.587176 5.744460
Cu 5.586268 3.377565 7.744832
Cu 8.011293 5.041658 3.248401
P 0.434496 8.016733 7.414191
P 0.586599 6.119352 0.684725
P 2.096236 4.723773 5.033241
P 2.436284 3.695449 0.536811
P 3.945922 2.299871 5.181156
P 4.098024 0.402489 2.917761
P 4.967017 4.612100 1.578670
P 5.119119 6.509482 8.308136
P 6.628757 7.905060 3.959620
P 6.968805 0.514162 8.456050
P 8.478442 1.909741 3.811705
P 8.630544 3.807122 6.075100
O 0.121064 6.631089 8.227164
O 0.529036 1.099399 3.190244
O 0.977375 7.706720 6.060307
O 1.060048 4.403321 6.246909
O 1.113622 7.275606 1.498579
O 1.340892 2.799055 1.066985
O 1.319507 5.141467 3.825176
O 1.280600 0.508117 8.288891
O 1.796646 5.154273 0.261162
O 2.735875 3.264949 4.757592
O 3.251920 7.911105 3.792460
O 3.213013 3.277755 8.321607
O 3.191629 5.620168 5.563416
O 3.418898 1.143617 5.995010
O 3.472473 4.015902 1.750478
O 3.555155 0.712502 1.563877
O 4.003485 7.319823 7.686675
O 4.411457 1.788133 3.730733
O 4.653584 5.997744 0.765697
O 5.061556 3.110212 5.802617
O 5.509886 4.922113 2.932554
O 5.592568 8.225513 2.745952
O 5.646143 5.353228 7.494282
O 5.873412 1.410556 7.925876
O 5.852028 7.487366 5.167685
O 5.813121 3.701494 0.703970
O 6.329166 7.474560 8.731699
O 7.268395 0.944662 4.235269
O 7.784441 4.717728 5.200401
O 7.745533 0.931856 0.671254
O 7.724149 7.008666 3.429446
O 7.951419 3.065994 2.997851
O 8.004993 0.193709 7.242383
O 8.087675 3.497109 7.428985
O 8.536005 5.309010 1.306186
O 8.943977 2.421478 5.262128
