86

Li 8.535513 -1.152216 12.175641
Li 5.276082 -1.049255 12.806220
Li 5.016614 -0.780813 7.370603
Li 10.557702 2.054962 11.554853
Li 3.533529 4.905534 5.713983
Co 0.010679 9.103897 3.338847
Co 3.151327 5.405308 13.982954
Co 8.647172 -0.641359 9.480097
Co 4.763894 2.700291 7.307008
Co 5.958218 3.356323 12.343571
Co 10.064515 5.620195 16.845127
Co 2.048473 6.597071 10.010069
Co 7.558607 0.609702 5.520543
Co 0.664377 0.362205 2.738912
P 4.377386 0.649283 4.281582
P 0.882491 2.407324 5.503707
P 2.501549 4.150572 10.991763
P 4.804606 5.621593 8.617944
P 6.302161 5.379739 15.263811
P 7.796203 -1.902314 6.453711
P 10.225208 -0.569664 15.127167
P 8.273560 1.785220 8.525569
P 3.376756 2.391833 13.696045
P 9.663740 3.704235 14.020278
P 1.955536 0.623301 7.056029
P 0.495715 6.515996 4.395162
P 7.309475 3.674884 5.914051
P 6.021625 0.368873 10.851955
P 8.705182 5.500404 12.516173
P 2.964446 7.952668 13.124437
O 6.757732 5.860547 9.206233
O 9.535575 -2.267307 6.547048
O 7.493068 -1.235289 7.725398
O 2.151832 4.874887 12.212949
O 10.450294 4.054402 15.483529
O 1.892707 4.886002 10.000723
O 0.199209 6.034878 8.196792
O 5.564137 4.999176 13.816038
O 7.287764 4.525731 11.822798
O 6.019601 3.745476 6.601868
O 6.516365 4.067431 15.632421
O 8.649229 1.082248 7.308667
O 0.114080 2.028729 4.035951
O 6.564628 -0.264436 11.902296
O 9.656735 5.078750 13.747328
O 9.257503 3.175896 9.093345
O 9.570931 0.270986 16.147567
O 7.944836 3.113875 13.599832
O 8.776537 4.682565 17.610369
O 3.588004 7.248712 14.123576
O 1.910540 1.385068 2.008269
O 7.958278 6.132614 15.756224
O 6.513838 2.034896 8.377435
O 4.254737 5.949683 7.398010
O 9.646956 -0.345418 13.859214
O 3.378920 1.596378 7.789216
O 0.726992 7.984268 4.533524
O 1.456362 2.797401 10.434229
O 1.153858 5.760971 3.328193
O 2.928201 3.738508 3.274091
O 8.326150 -2.249041 9.787929
O 4.492377 4.177107 8.483072
O 2.494330 -0.708526 6.568996
O 1.237338 8.360426 13.081952
O 5.079743 1.011905 5.739881
O 2.498700 3.170438 5.975391
O 4.243866 2.002099 3.964032
O 10.003324 -2.014486 15.072331
O 0.695749 0.604454 7.784692
O 1.078412 6.130157 5.589444
O 8.992497 1.111211 9.556592
O 3.117213 7.277134 11.827168
O 10.166695 -0.034042 11.217489
O 6.437042 1.804418 11.195301
O 9.880472 5.461997 11.707308
O 2.661503 0.006240 3.794793
O 4.533560 2.319442 12.899259
O 6.564510 -0.301284 9.663507
O 4.198967 6.468907 9.689929
O 7.797435 2.330515 16.433393
O 4.975892 6.064363 15.806090
O 7.144583 -1.135506 5.521834
O 1.056626 1.069833 5.826578
O 5.628284 -0.062540 3.691662
O 4.069142 0.169469 10.315422
O 4.239292 3.815506 11.150284
