46

Li 2.118708 4.461439 2.194707
Li 3.521645 1.467241 0.423486
Li 7.759061 4.521155 4.812900
Li 9.161997 1.526957 3.041679
Co 0.000000 0.000000 0.000000
Co 5.640353 2.994198 2.618193
H 0.780952 1.957798 4.440734
H 0.214661 1.902316 1.474287
H 1.156859 0.548956 3.884219
H 1.555846 1.012973 1.893654
H 4.483494 3.543154 4.833986
H 4.084507 4.007171 0.724539
H 4.859401 4.951996 4.277471
H 5.425692 4.896514 1.143906
H 5.855013 1.091882 4.092480
H 6.421305 1.036400 0.958915
H 7.196199 1.981225 4.511847
H 6.797212 2.445242 0.402399
H 9.724859 4.975423 3.342732
H 10.123847 5.439440 1.352167
H 11.066045 4.086080 3.762099
H 10.499754 4.030598 0.795652
C 2.055638 3.827393 5.457705
C 3.584715 0.833195 3.260501
C 7.695991 5.155200 1.975885
C 9.225068 2.161002 -0.221319
O 0.433066 1.017135 4.350351
O 1.312544 3.572030 4.391008
O 1.056709 1.485883 1.128812
O 1.722620 4.731450 0.203621
O 2.462849 0.172047 3.000475
O 3.177504 3.166245 5.717730
O 3.917733 1.737252 2.414572
O 4.327809 0.577832 4.327197
O 5.207287 4.011333 4.367854
O 4.583644 4.480081 1.489381
O 6.697062 1.508315 3.747005
O 6.073419 1.977063 0.868531
O 6.952897 5.410564 0.909189
O 7.362973 4.251144 2.821814
O 8.103202 2.822151 -0.481344
O 8.817857 5.816349 2.235911
O 9.558086 1.256946 5.032765
O 10.223997 4.502513 4.107573
O 9.968162 2.416366 0.845377
O 10.847639 4.971261 0.886035
