24

Mn 3.831459 2.261902 1.739202
Mn 4.815992 0.925957 6.092469
Mn 4.815975 -1.570500 6.117289
Cr 0.945451 3.722218 1.687736
Cr 0.945759 1.187652 1.712957
Cr 1.885807 -0.126148 6.061836
Co 1.966345 2.386710 4.138982
Co 3.882644 -0.259867 8.470536
O 1.006232 3.688753 5.215330
O 0.346765 2.495066 2.923654
O 1.976790 2.385935 0.744744
O 5.785445 2.131051 2.595097
O 5.769952 2.132255 6.984671
O 1.006215 1.213258 5.239985
O 2.769918 3.412745 2.888028
O 2.770046 1.253101 2.909554
O 2.026417 -0.135739 0.887439
O 3.835966 2.261623 5.138546
O 3.042664 0.865377 7.272400
O 3.042659 -1.272502 7.293633
O 3.907019 -0.261405 5.141001
O 4.839006 0.888487 0.794602
O 5.552665 -0.371648 7.249547
O 4.839076 -1.536296 0.818792
