54

Li 0.512158 2.994292 4.675915
Li 2.925180 1.102608 0.538526
Li 4.386771 5.143302 1.674958
Li 6.799793 7.034986 4.844386
Li 7.800058 1.061717 -0.421705
Li 9.261162 5.102411 0.715290
V 2.430941 4.078095 -0.471405
V 4.881010 0.037401 2.684889
V 7.289060 4.016199 5.812631
V 0.022891 8.056893 3.707669
P 0.614301 2.803458 1.829823
P 1.778354 6.872113 1.362182
P 3.046022 1.227894 4.953189
P 4.265929 5.268588 4.567111
P 5.533597 2.831419 0.851302
P 6.697650 6.844152 0.383661
P 7.963953 1.258862 4.042956
P 9.097267 5.299556 3.557446
H 2.652259 4.119148 3.265280
H 4.659692 0.078454 6.255020
H 7.231793 3.993167 2.165057
H 0.080158 8.033861 0.048427
O 0.586643 4.463431 6.018575
O 0.053709 1.435149 2.271766
O 0.741754 6.685231 2.462053
O 1.202221 3.598327 3.002654
O 1.777799 0.396133 4.373825
O 2.474452 2.551375 5.430985
O 1.124139 7.649907 0.190146
O 1.661392 2.639236 0.757830
O 3.217473 5.398254 5.604856
O 3.663317 0.472818 6.187077
O 2.334687 5.512185 0.949531
O 3.006089 7.750310 1.870364
O 3.648635 4.513512 3.333223
O 4.094478 1.357560 3.915444
O 4.837499 6.592069 4.089315
O 5.534153 4.436827 5.146475
O 4.305862 3.709616 0.343120
O 4.977265 1.471491 1.263953
O 5.650559 6.679930 1.455654
O 6.187812 3.609213 2.023338
O 6.725309 0.422737 3.501725
O 7.542990 2.672313 4.484992
O 6.109730 7.639021 -0.789170
O 6.570198 2.644537 -0.248569
O 8.043264 5.447615 4.646108
O 8.547662 0.482087 5.234744
O 7.258243 5.475843 -0.058282
O 7.959176 7.692536 0.974909
O 8.513559 4.522781 2.365657
O 9.017956 1.406921 2.954294
O 9.518230 6.713007 3.115409
O 9.102044 3.651842 -0.681324
