40

Li 1.345729 1.996200 5.539220
Li 1.345729 4.972988 1.829041
Li 1.345729 7.556346 -2.609116
Li 7.665917 3.934695 4.803353
Li 7.665917 6.484130 0.360327
Li 7.665917 9.489451 -3.373205
Mn 0.385985 2.452763 3.095600
Mn 5.072508 4.428288 -0.382554
V 3.963804 7.046909 2.568146
V 8.596423 9.028426 -0.915242
P 2.258785 2.568536 0.743670
P 2.258785 4.735711 4.305867
P 2.258785 6.917344 -0.024868
P 6.765406 4.553381 2.208435
P 6.765406 6.741744 -2.116605
P 6.765406 8.912925 1.436744
O 0.876440 3.122198 -0.295810
O 1.754441 3.003963 1.808101
O 1.754441 3.338420 4.187392
O 0.876440 5.583597 -2.242495
O 0.876440 5.975964 0.170263
O 3.803111 3.096347 0.477119
O 2.417547 5.656681 3.117016
O 3.803111 4.529391 5.098253
O 1.754441 8.047095 -1.117491
O 2.417547 7.544060 1.054874
O 3.803111 6.081730 -0.101538
O 2.417547 8.454767 -3.907849
O 6.612442 3.005055 6.034322
O 5.225625 5.440943 2.296015
O 6.612442 3.874225 1.182120
O 7.256637 3.428699 3.324333
O 5.225625 6.942394 -2.954189
O 6.612442 5.892923 -0.925541
O 5.225625 8.337338 1.738916
O 8.135296 5.470354 1.994222
O 8.135296 5.884133 4.461755
O 7.256637 8.165629 -2.018914
O 7.256637 8.450179 0.366029
O 8.135296 8.397512 2.461704
