44

Sb 0.000000 0.000000 0.000000
Sb 0.000000 0.000000 0.000000
Sb 0.000000 0.000000 0.000000
Sb 0.000000 0.000000 0.000000
Sb 0.000000 0.000000 0.000000
Sb 0.000000 0.000000 0.000000
Sb 0.000000 0.000000 0.000000
Sb 0.000000 0.000000 0.000000
Sb 0.000000 0.000000 0.000000
Sb 0.000000 0.000000 0.000000
Sb 0.000000 0.000000 0.000000
Sb 0.000000 0.000000 0.000000
Sb 0.000000 0.000000 0.000000
Sb 0.000000 0.000000 0.000000
Sb 0.000000 0.000000 0.000000
Sb 0.000000 0.000000 0.000000
Sb 0.000000 0.000000 0.000000
S 0.000000 0.000000 0.000000
S 0.000000 0.000000 0.000000
S 0.000000 0.000000 0.000000
S 0.000000 0.000000 0.000000
S 0.000000 0.000000 0.000000
S 0.000000 0.000000 0.000000
S 0.000000 0.000000 0.000000
S 0.000000 0.000000 0.000000
S 0.000000 0.000000 0.000000
S 0.000000 0.000000 0.000000
S 0.000000 0.000000 0.000000
S 0.000000 0.000000 0.000000
S 0.000000 0.000000 0.000000
S 0.000000 0.000000 0.000000
S 0.000000 0.000000 0.000000
S 0.000000 0.000000 0.000000
S 0.000000 0.000000 0.000000
S 0.000000 0.000000 0.000000
S 0.000000 0.000000 0.000000
S 0.000000 0.000000 0.000000
S 0.000000 0.000000 0.000000
S 0.000000 0.000000 0.000000
S 0.000000 0.000000 0.000000
S 0.000000 0.000000 0.000000
S 0.000000 0.000000 0.000000
S 0.000000 0.000000 0.000000
S 0.000000 0.000000 0.000000
