76

Li 1.522843 7.913978 5.817839
Li 1.720616 19.232305 5.291657
Li 4.766303 3.404349 2.872897
Li 4.964076 14.722676 2.346715
P 0.763459 1.900777 2.565941
P 1.796092 18.014770 0.878817
P 1.447368 6.696443 3.203460
P 1.420765 13.567460 5.876222
P 2.480001 13.219104 1.516336
P 1.822695 2.249133 5.233274
P 4.664225 20.387521 2.931280
P 4.006918 9.417550 6.648218
P 5.066154 9.069194 2.288332
P 5.039551 15.940211 4.961095
P 4.690828 4.621884 7.285737
P 5.723461 20.735877 5.598614
W 1.378503 4.709103 0.539496
W 1.444390 21.169912 1.812609
W 1.799069 9.851585 2.269668
W 1.864957 16.027430 3.542781
W 4.621962 6.609224 4.621773
W 4.687850 12.785069 5.894886
W 5.042529 1.466742 6.351945
W 5.108417 17.927551 7.625058
O 0.122998 6.970980 3.975282
O 0.897880 2.827997 1.379934
O 0.103460 12.814746 5.605432
O 0.679991 20.722068 3.922141
O 1.450696 13.861306 0.412129
O 0.619157 1.343123 5.533189
O 1.281439 5.370863 2.453762
O 1.455606 19.122200 1.873808
O 1.339445 0.520371 2.272011
O 0.723960 17.981471 6.771953
O 1.376797 9.878930 3.935044
O 1.904015 11.838698 1.810266
O 1.787853 7.803873 2.208469
O 1.962021 16.689190 1.628516
O 1.810519 17.634180 4.242452
O 1.792764 2.542979 3.670148
O 1.500068 14.948522 5.235801
O 1.743392 3.630195 5.873696
O 2.345579 14.146324 2.702343
O 1.432941 6.315853 6.867044
O 1.866663 21.197257 7.174452
O 2.519500 6.663144 4.337543
O 3.366458 4.347347 1.030340
O 2.624303 12.661450 5.576307
O 3.346920 21.140235 2.660490
O 2.563468 9.403741 7.187355
O 3.923451 13.232913 0.977199
O 3.140000 1.496419 5.504064
O 3.862617 9.975204 2.588247
O 3.120461 18.289307 7.134214
O 3.967419 15.973510 3.827011
O 4.620256 1.439397 0.990102
O 5.053978 16.320801 1.297510
O 4.141340 8.490330 5.462211
O 4.743527 19.006459 2.290859
O 4.986852 7.688132 2.928754
O 4.694155 20.093675 4.494406
O 4.676401 5.002474 3.922102
O 4.524899 5.947464 6.536039
O 4.699066 14.832781 5.956085
O 4.582905 10.797956 6.354288
O 5.110123 12.757724 4.229510
O 5.762960 4.655183 1.392602
O 5.147474 22.116283 5.892543
O 5.031313 3.514454 6.290746
O 5.205480 17.265791 5.710793
O 5.867762 21.293531 2.631365
O 5.036224 8.775348 7.752425
O 5.806928 1.914586 4.242413
O 6.383459 9.821908 2.559122
O 5.589039 19.808657 6.784620
O 6.363921 15.665674 4.189272
