16

Li 0.000000 3.105862 2.901872
Li 2.607044 4.409385 0.161386
Mn 1.743477 5.828030 3.280293
Mn 4.524416 7.218500 0.539807
Mn 0.689673 1.600269 5.263936
Mn 3.470612 2.990739 2.523450
F 2.522248 6.297740 5.252404
F 3.678216 6.875724 2.511918
F 0.748727 3.933334 4.674443
F 1.477980 4.297961 1.933957
F 3.736108 4.520809 3.869786
F 4.465361 4.885435 1.129300
F 1.535872 1.943046 3.291825
F 2.691841 2.521030 0.551339
F 4.935401 2.467701 4.110729
F 0.278688 6.351069 1.693014
