20

Mn 1.863161 1.955836 0.520013
Mn 0.967927 5.429879 4.208266
Mn 2.860794 4.394921 2.151015
Mn 3.765663 1.008856 5.848325
Mn 5.658530 -0.026103 3.791075
Mn 4.763296 3.447941 7.479327
O 4.046121 5.019034 0.924507
O 2.580336 0.384743 7.074834
F 0.084004 4.551700 5.737104
F 1.260876 3.764509 1.036670
F 0.913576 0.920841 1.828701
F 2.021281 3.750446 3.604738
F 2.021977 0.403329 4.729386
F 3.762257 2.416511 1.548518
F 2.864200 2.987265 6.450822
F 4.604480 5.000448 3.269955
F 4.605175 1.653331 4.394602
F 5.712880 4.482936 6.170639
F 5.365581 1.639268 6.962670
F 6.542453 0.852077 2.262236
