39

Ba 0.000000 0.000000 0.000000
Ba 0.000000 0.000000 0.000000
Ba 0.000000 0.000000 0.000000
Ba 0.000000 0.000000 0.000000
Ba 0.000000 0.000000 0.000000
Ba 0.000000 0.000000 0.000000
Ba 0.000000 0.000000 0.000000
Ba 0.000000 0.000000 0.000000
Nb 0.000000 0.000000 0.000000
Nb 0.000000 0.000000 0.000000
Nb 0.000000 0.000000 0.000000
Nb 0.000000 0.000000 0.000000
Nb 0.000000 0.000000 0.000000
Nb 0.000000 0.000000 0.000000
Nb 0.000000 0.000000 0.000000
O 0.000000 0.000000 0.000000
O 0.000000 0.000000 0.000000
O 0.000000 0.000000 0.000000
O 0.000000 0.000000 0.000000
O 0.000000 0.000000 0.000000
O 0.000000 0.000000 0.000000
O 0.000000 0.000000 0.000000
O 0.000000 0.000000 0.000000
O 0.000000 0.000000 0.000000
O 0.000000 0.000000 0.000000
O 0.000000 0.000000 0.000000
O 0.000000 0.000000 0.000000
O 0.000000 0.000000 0.000000
O 0.000000 0.000000 0.000000
O 0.000000 0.000000 0.000000
O 0.000000 0.000000 0.000000
O 0.000000 0.000000 0.000000
O 0.000000 0.000000 0.000000
O 0.000000 0.000000 0.000000
O 0.000000 0.000000 0.000000
O 0.000000 0.000000 0.000000
O 0.000000 0.000000 0.000000
O 0.000000 0.000000 0.000000
O 0.000000 0.000000 0.000000
