36

Mn 1.226654 1.660368 1.950017
Mn 3.000796 4.061803 4.770379
Mn 5.454104 7.382539 8.670412
Mn 7.228247 9.783974 11.490774
Fe 0.000000 0.000000 0.000000
Fe 4.227450 5.722171 6.720395
P 0.405573 5.781954 5.175474
P 3.821877 2.161296 7.213768
P 6.341175 6.362178 4.411747
P 2.113725 5.082164 9.029044
P 4.633023 9.283046 6.227023
P 8.049327 5.662389 8.265317
O 0.886742 2.811525 4.794269
O 2.714336 5.090656 3.243006
O 0.527670 6.985840 4.166080
O 4.321139 2.821133 4.556706
O 0.093689 6.164274 6.277244
O 2.123423 5.446429 5.516726
O 2.104027 1.458202 7.523290
O 3.699780 3.618173 6.555991
O 1.513114 3.659368 8.640730
O 5.041006 5.640920 5.198162
O 0.813556 5.983051 8.799062
O 3.340709 8.948105 5.203719
O 5.114192 2.496237 8.237071
O 7.641345 5.461292 4.641729
O 3.413894 5.803422 8.242629
O 6.941786 7.784974 4.800061
O 4.755121 7.826170 6.884800
O 6.350873 9.986140 5.917501
O 6.331478 5.997913 7.924065
O 8.361212 5.280068 7.163547
O 4.133762 8.623210 8.884085
O 7.927230 4.458502 9.274711
O 5.740565 6.353686 10.197785
O 7.568159 8.632817 8.646522
