38

Li 0.501833 2.322623 4.807961
Li 1.220700 0.356637 2.915439
Li 8.263441 3.165675 2.731116
Li 4.267354 6.494074 1.092119
Li 2.956232 2.863279 3.393305
Li 3.675098 0.897293 1.500783
Li 5.528445 3.566223 1.620686
Li 7.002350 6.093526 2.202549
Mn 0.759517 1.416773 0.142775
Mn 3.417415 1.803143 6.165969
Mn 2.088466 4.930284 -2.241930
Mn 6.265397 1.509549 -0.243579
Mn 4.965728 4.582788 -1.058975
Mn 7.565066 5.076961 4.882209
Sn 2.430506 3.951006 0.563303
Sn 1.746425 5.909562 2.504335
Sn 6.657168 0.447933 2.616931
Sn 5.873626 2.571164 4.447409
O 2.631734 0.139973 7.251909
O 2.425962 1.154683 4.730094
O 1.750970 2.065233 1.578650
O 1.196958 4.202643 3.841777
O 0.785013 5.206910 1.042700
O 1.545197 3.079943 -0.943165
O 5.351810 0.850113 5.761211
O 0.083388 6.261969 -2.043110
O 4.932497 1.777513 3.001654
O 4.093543 3.598598 5.110749
O 4.262467 2.795349 0.059497
O 3.391919 4.653658 2.024939
O 8.268328 0.223749 7.004843
O 2.979973 5.657925 -0.774138
O 6.889707 3.328124 5.934393
O 7.598298 1.241585 4.062686
O 7.178984 2.168984 1.303129
O 6.761976 4.327512 3.458248
O 5.768819 5.332237 0.364987
O 5.641088 6.331624 -2.111158
