55

Li 0.803243 6.274145 3.785869
Li 6.240432 1.131709 -0.300713
Li 0.766334 6.325129 7.818418
Li 3.183324 8.915051 4.494525
Li 6.293439 1.097651 2.274054
Li 8.759149 3.641493 -0.882994
Li 3.188408 8.894622 7.280725
Li 8.738424 3.645475 2.937302
Li 8.679962 9.126278 1.875643
Cr 4.738894 0.276864 4.351532
Cr 4.767460 5.003649 0.126392
Cr 0.026617 4.733686 5.681754
Cr 4.758499 5.012125 3.422800
C 3.278257 7.089257 2.315645
C 2.748105 2.826001 3.713878
C 6.925783 3.639465 1.251040
C 6.820255 7.144840 0.534021
C 2.585759 6.395628 5.598963
C 2.684608 2.886057 6.336620
C 6.794113 7.169565 3.120640
C 6.267810 2.913183 4.539783
S 1.120095 1.177689 1.680620
S 8.312423 8.739839 5.169611
O 0.554545 0.516358 0.786328
O 0.404781 2.973042 2.037508
O 0.487750 0.579532 2.544010
O 3.893050 1.524703 -0.625080
O 2.955789 0.560325 1.352635
O 1.320937 3.957382 4.063036
O 6.252158 3.078585 -1.121885
O 2.885506 1.450661 3.864635
O 3.230895 5.895364 2.665762
O 5.732726 3.529158 0.868923
O 1.300078 2.950142 6.153690
O 3.309113 8.415522 2.885367
O 4.050540 3.047912 3.210578
O 6.692708 5.846663 -0.028769
O 1.171182 6.425226 6.150641
O 2.752220 6.388790 4.657622
O 6.766307 3.617320 2.190947
O 8.252270 3.740335 0.716333
O 2.837945 4.194772 6.877474
O 6.372264 1.506097 3.954308
O 5.500867 6.973894 3.646778
O 8.194464 7.092090 0.750755
O 3.781915 6.429034 5.973986
O 6.237999 4.106095 4.194848
O 6.668609 8.535228 2.936119
O 3.264516 6.929278 7.978169
O 8.211911 6.040717 2.774342
O 6.462094 9.368283 5.507577
O 5.614844 8.496997 7.492698
O 9.039605 6.930499 4.802672
O 8.889357 9.301230 4.285718
O 8.844085 9.344048 6.082102
