20

Li 1.532624 6.349315 6.087186
Li 4.379761 4.810915 8.234848
Li 4.369257 9.460397 11.374910
Mn 1.592472 1.748874 2.958329
Sb 0.046578 9.388105 10.709339
Sb 5.495951 10.704582 9.217916
Sb 2.737074 12.328705 11.526246
Sb 2.791620 7.754486 8.376800
O 2.041911 5.045144 4.658117
O 1.226722 2.593280 4.862485
O 0.652591 3.744986 5.933452
O 4.844795 7.172462 7.544938
O 2.131183 9.856513 7.914192
O 4.011766 7.806164 8.377721
O 1.220666 7.153256 7.989619
O 3.482575 5.489371 8.725098
O 0.614926 8.428403 9.054159
O 4.888194 11.896663 10.737531
O 4.016873 12.585358 11.554946
O 3.404517 9.997894 11.818203
