26

Na 2.360637 1.317179 0.016874
Na 2.360637 1.317179 3.333706
Na 6.617655 3.953368 3.364182
Na 6.617655 3.953368 6.687555
Na 8.245622 1.305197 5.025869
Li 0.750287 3.955784 1.675290
Fe 3.155486 4.072187 5.025869
Fe 5.814824 1.197695 1.675290
P 3.678516 3.680004 1.675290
P 5.272273 1.591406 5.025869
C 0.531498 3.783266 5.025869
C 8.478804 1.491831 1.675290
O 0.785296 1.551184 1.675290
O 1.103167 4.950705 5.025869
O 1.279127 2.710577 5.025869
O 2.805281 4.072511 0.436406
O 2.805281 4.072511 2.914173
O 3.902720 0.887557 5.025869
O 3.915641 2.136723 1.675290
O 5.056187 3.138275 5.025869
O 5.051760 4.385439 1.675290
O 6.128188 1.195851 3.776076
O 6.128188 1.195851 6.275662
O 7.701563 2.543298 1.675290
O 7.959994 0.296069 1.675290
O 8.219547 3.781711 5.025869
