28

Li 2.003842 2.562997 8.284187
Li 6.088601 2.344344 8.892480
Li 6.177886 2.339646 4.216830
Li 4.027627 -0.215213 3.556796
Mn 4.146365 2.448058 1.566669
Mn 5.215718 1.023548 6.371673
Mn 5.216480 -1.581016 6.493280
Cr 2.206391 2.551784 4.485607
Cr 4.335406 -0.231523 9.095697
Sb 1.052221 3.933078 1.809812
Sb 1.052102 1.294118 1.933119
Sb 2.152495 -0.115152 6.765534
O 1.186229 3.975664 5.523330
O 0.218882 2.658222 3.128953
O 1.928447 2.566715 0.683815
O 0.124649 -0.006637 3.077322
O 0.100569 -0.006279 7.790728
O 1.186016 1.237292 5.651517
O 2.887228 3.728202 2.894312
O 2.887140 1.302740 3.007549
O 1.947634 -0.104162 0.856345
O 4.228046 2.443032 5.284688
O 3.174651 0.975232 7.939179
O 3.175150 -1.314436 8.046237
O 4.062467 -0.216168 5.515604
O 5.368520 1.054647 0.389819
O 5.953400 -0.317131 7.674593
O 5.368452 -1.628465 0.515194
