22

Mn 0.000000 0.000000 0.000000
Mn 0.000000 0.000000 0.000000
Mn 0.000000 0.000000 0.000000
Mn 0.000000 0.000000 0.000000
Si 0.000000 0.000000 0.000000
Si 0.000000 0.000000 0.000000
Si 0.000000 0.000000 0.000000
Si 0.000000 0.000000 0.000000
O 0.000000 0.000000 0.000000
O 0.000000 0.000000 0.000000
O 0.000000 0.000000 0.000000
O 0.000000 0.000000 0.000000
O 0.000000 0.000000 0.000000
O 0.000000 0.000000 0.000000
O 0.000000 0.000000 0.000000
O 0.000000 0.000000 0.000000
O 0.000000 0.000000 0.000000
O 0.000000 0.000000 0.000000
O 0.000000 0.000000 0.000000
O 0.000000 0.000000 0.000000
O 0.000000 0.000000 0.000000
O 0.000000 0.000000 0.000000
