14

Li 4.609151 3.051183 1.201628
Li 1.536384 5.394877 2.745494
Co 3.072767 1.599212 -1.470173
Co 0.000000 2.623818 0.900029
Sn 3.072767 4.223030 -0.570144
Sn 0.000000 2.623818 3.443734
O 3.272804 5.587075 3.797868
O 5.945497 6.978069 -0.355779
O 6.032585 4.601458 -1.164846
O 3.185716 5.550739 1.031107
O 2.959818 2.895320 2.916015
O 0.112949 3.844602 5.111969
O 0.200037 1.467990 4.302902
O 2.872730 2.858985 0.149254
