14

Li 0.724917 0.994267 1.168413
Li 3.030873 4.157020 4.885127
Mn 5.305606 7.276950 8.551516
V 0.044206 2.604625 3.327421
V 3.008767 1.582706 3.986455
V 3.008767 4.126701 2.456367
O 1.569493 2.152652 2.529691
O 1.496511 2.052553 4.667126
O 1.496511 4.449781 3.225311
O 4.290042 3.486818 3.846325
O 1.777013 4.795167 5.882135
O 4.524701 3.848006 6.492958
O 4.524701 6.205894 5.074804
O 4.467851 6.127920 7.201232
