16

Li 1.790706 2.194188 6.017832
Li 1.867294 2.269952 2.279405
Li 3.154617 5.221224 7.127491
Li 3.231330 5.297282 3.389191
Cu 5.021895 2.394537 6.356983
Cu 0.002863 -0.002805 3.449704
F 1.167786 1.355746 4.079481
F 0.152899 3.319938 2.983756
F 1.615072 4.082376 6.213115
F 1.065023 5.592279 4.490824
F 3.012164 2.335304 0.515999
F 2.009827 5.155920 8.890881
F 3.956942 1.899061 4.915996
F 3.405266 3.410299 3.193964
F 4.869162 4.171534 6.423119
F 3.854194 6.135927 5.327602
