19

Ti 3.237789 -1.089148 -1.089148
Ti 0.000000 3.049104 -1.545594
Ti 0.000000 0.000000 2.628340
Nb 3.237789 1.959955 -0.006402
Cu 3.237789 1.959955 -2.634742
Cu 3.237789 -1.089148 1.539192
Cu 0.000000 3.049104 1.082746
O 5.310336 0.124884 -2.052858
O 3.185246 0.000244 0.025393
O 5.610479 -0.789953 1.165681
O 4.446099 3.787916 -3.227923
O 2.020426 2.319979 -1.276331
O 5.337540 2.400048 -1.251198
O 1.138037 1.519863 1.238395
O 2.029478 0.131995 3.215119
O 4.455152 1.599932 1.263527
O 0.865098 4.709864 -1.178484
O 3.290332 3.919667 -0.038196
O 1.165241 3.795027 2.040054
