24

V 3.978145 2.296659 1.877214
V 4.994192 0.878957 6.438047
V 5.032238 -1.656905 6.453882
Cr 1.029775 3.792583 1.817112
Cr 1.036736 1.237229 1.865983
Cr 2.044376 -0.162097 6.466310
W 1.959099 2.442707 4.430132
W 3.971890 -0.306938 9.046820
O 1.026889 3.733512 5.388024
O 0.312400 2.564060 3.061765
O 2.139222 2.434513 0.884531
O 5.965925 2.143210 2.517125
O 6.016295 2.068502 7.131419
O 1.050169 1.271041 5.439632
O 2.896415 3.484329 3.020886
O 2.888315 1.271888 3.061533
O 2.080812 -0.143310 0.802392
O 3.880665 2.297789 5.339738
O 3.182569 0.879615 7.633703
O 3.142167 -1.321694 7.706879
O 4.074426 -0.249486 5.479075
O 4.946317 0.860667 0.692325
O 5.741621 -0.399298 7.630203
O 4.955001 -1.587595 0.738933
