56

Li 2.314244 1.235884 5.276265
Li 0.577470 3.433921 4.688994
Li 3.465783 -0.228031 3.359935
Li 6.921346 3.691586 2.108314
Li 1.735247 1.965847 2.792241
Li 2.887287 0.498325 0.897894
Li 0.000000 4.170864 2.217593
Li 5.192158 5.893271 1.531243
Li 1.158100 2.700010 0.320823
Li 6.344198 4.425748 -0.363104
Li 4.039723 -0.975066 -1.003024
Li 4.613662 6.619626 -0.930798
Li 7.501975 2.957675 -2.259857
Li 5.765201 5.155711 -2.847128
Mg 4.039723 3.195798 1.214568
Co 6.348456 0.254516 4.263970
Co 7.500335 -1.218716 2.368442
Co 4.616482 2.460202 3.688785
Co 2.885711 4.666332 3.109863
Co 5.772093 0.990791 1.790985
Co 1.151830 6.870994 2.536601
Co 6.927615 -0.479399 -0.107465
Co 5.193734 1.725263 -0.680726
Co 0.000000 0.000000 0.000000
Co 2.307352 5.400804 0.638152
Co 3.462963 3.931393 -1.259648
Co 0.579110 7.610311 0.060695
Co 1.730989 6.137080 -1.834833
O 4.482573 0.841254 4.760306
O 0.141794 1.617045 5.776133
O 2.741356 3.051874 4.177013
O 1.296331 0.145984 3.884001
O 5.633474 -0.627229 2.862463
O 6.496464 1.873406 3.197527
O 4.804232 4.126591 2.694756
O 1.874892 7.748862 3.941755
O 3.885373 1.490758 2.341707
O 1.014358 5.260522 3.612913
O 7.645983 0.390709 1.303392
O 0.723821 0.886710 1.402587
O 3.029137 6.288155 2.042146
O 6.020172 2.577536 0.695754
O 2.059273 3.814059 1.733383
O 7.355624 5.504886 1.026550
O 5.050308 0.103440 0.386991
O 0.433462 6.000886 1.125745
O 4.194072 4.900838 0.087430
O 6.204553 -1.357266 -1.512618
O 3.275213 2.265005 -0.265619
O 7.065087 1.131074 -1.183776
O 2.445971 7.018824 -0.433326
O 6.783114 6.245612 -1.454864
O 1.582981 4.518189 -0.768390
O 5.338089 3.339722 -1.747876
O 3.596872 5.550342 -2.331169
O 7.937651 4.774550 -3.346996
