52

Li 0.000000 4.180551 2.316798
Li 1.189877 5.714668 4.268569
Li 2.361449 3.046214 3.880448
Li 4.822282 1.949474 5.666050
Li 3.568854 4.601298 5.945702
Li 4.687757 6.054511 0.627580
Li 3.434329 8.706335 0.907232
Li 5.895163 7.609594 2.692834
Li 7.066734 4.941141 2.304712
Co 0.000000 0.000000 0.000000
Co 0.543244 0.807068 4.533140
Co 0.611641 4.914715 -0.334570
Co 1.786202 2.293145 6.517795
Co 4.128306 1.147353 0.969843
Co 2.958913 3.782608 1.309686
Co 1.786838 6.414342 1.675130
Co 5.272672 2.671956 2.937055
Co 4.128306 5.327904 3.286641
Co 2.983939 7.983852 3.636226
Co 6.469773 4.241467 4.898152
Co 5.297698 6.873200 5.263596
Co 6.470409 8.362664 0.055486
Co 7.644970 5.741094 6.907852
Co 7.713367 9.848741 2.040142
O 0.191496 2.539663 3.642289
O 0.114726 6.522074 -1.420864
O 1.027519 3.280050 0.642143
O 2.143276 0.633693 7.455971
O 1.335441 3.923741 5.514615
O 2.578969 1.370761 5.194273
O 1.399083 8.070359 0.734074
O 2.544820 5.333848 0.271852
O 1.050968 7.561641 3.169943
O 2.134664 4.858690 2.799888
O 3.401476 2.215786 2.385839
O 3.685148 2.727045 7.007811
O 4.824247 4.395517 1.954508
O 3.781858 7.001798 2.295178
O 4.474753 3.654011 4.278104
O 3.432364 6.260292 4.618774
O 4.571463 7.928764 -0.434529
O 4.855135 8.440022 4.187442
O 6.121947 5.797119 3.773393
O 7.205644 3.094168 3.403338
O 5.711791 5.321961 6.301430
O 6.857528 2.585450 5.839208
O 5.677642 9.285047 1.379009
O 6.921170 6.732067 1.058667
O 6.113335 10.022116 -0.882689
O 7.229092 7.375758 5.931139
O 8.141885 4.133735 7.994146
O 8.065115 8.116146 2.930993
