112

Li 2.359093 3.954584 13.139471
Li 2.401938 8.274252 11.708468
Li 0.005952 4.776215 9.586282
Li 6.338431 7.388906 -1.543937
Li 3.734183 8.967592 2.905171
Li 8.736672 7.136843 1.820351
Li 8.138011 11.654318 0.539273
Li 6.272296 11.740345 -2.957911
Li 0.610972 8.852269 8.043556
Li 4.963073 3.009443 8.476227
Li 1.241588 5.473859 0.819882
Li 3.148518 4.840783 4.431108
Li 1.306580 1.094097 2.220932
Li 7.368290 11.261228 9.011814
Li 5.535383 7.060293 6.937146
Li 7.335391 6.935796 10.465709
Ni 1.238468 6.463764 6.568142
Ni 1.769047 1.938258 7.893823
Ni 7.586079 9.606987 -4.737039
Ni 4.934904 10.640515 -0.047860
Ni 6.743884 8.741393 3.953927
Ni 2.596835 6.665041 -2.067788
Ni 9.892710 8.864545 -1.128877
Ni 7.523343 5.287967 -3.317980
Ni 4.457692 6.522928 1.483396
Ni 8.601233 12.535130 6.215999
Ni 6.182443 4.594889 5.511567
Ni 3.639671 6.145099 9.978149
Ni 9.410182 4.717185 0.381575
Ni 8.657988 8.211584 7.634181
Ni 3.666667 10.454755 8.583349
Ni 2.589542 2.339101 -0.652286
P 4.366130 4.913999 -1.040425
P 9.359468 7.851699 -3.707863
P 9.321493 12.188072 -5.147618
P 5.553546 4.370934 10.830551
P 1.821142 2.016128 4.779201
P 0.614668 1.406023 13.517049
P 3.685913 8.898553 6.013631
P 6.240699 4.687162 2.400046
P 8.093756 11.544349 3.633547
P 5.585710 8.674731 9.420143
P 6.792432 8.800124 0.874423
P 1.251077 6.536785 3.466869
P 3.095330 4.758679 7.530829
P 0.623750 5.745119 12.088787
P 8.639477 7.035426 4.942903
P 4.407216 9.221130 -2.470748
O 9.049541 8.155560 5.716426
O 4.117966 5.712115 8.124780
O 4.829929 5.413566 2.824581
O 3.289840 5.035587 -1.971512
O 2.314898 8.039359 6.946755
O 7.204870 6.204392 5.836113
O 8.201553 11.241700 -5.669209
O 8.481125 8.489736 0.671875
O 6.068724 9.926440 -3.096401
O 5.798571 7.840979 0.263309
O 4.531398 7.848395 -2.266054
O 3.231743 9.328172 4.769079
O 5.117331 8.190244 5.588975
O 6.349589 8.090424 8.131027
O 6.676467 4.246417 11.712096
O 0.783334 5.404967 2.734879
O 7.996610 10.249952 4.260416
O 3.706223 9.792088 -1.153511
O 1.736913 2.328378 14.055856
O 3.913669 4.762179 6.035463
O 9.101119 12.457728 4.284506
O 0.433344 8.775901 11.401442
O 6.862531 10.084939 0.229134
O 7.647375 5.508432 1.461305
O 3.904657 3.641192 11.446723
O 5.823888 3.524279 1.690600
O 2.978332 3.482859 8.213650
O 6.283524 3.830413 9.501800
O 5.469795 10.044851 9.189712
O 1.345708 5.672892 10.593758
O 9.478781 4.814194 -3.036508
O 8.926035 11.146439 7.296042
O 8.685879 7.921936 -2.206936
O 4.068693 10.067442 6.720224
O 0.100792 1.325156 9.504811
O 3.274558 9.349271 -3.351991
O 9.812208 12.271802 -1.088283
O 1.042746 1.980128 6.274951
O 5.412931 5.743665 10.649318
O 5.974967 8.756565 2.367822
O 2.689897 7.335406 2.534891
O 9.533023 9.114931 -4.433506
O 3.506090 10.322093 1.738226
O 6.049180 5.593747 -1.643634
O 8.918901 6.810925 8.730840
O 8.254085 7.540541 3.695517
O 1.373053 1.347363 12.026221
O 6.659397 8.568669 10.349484
O 6.673834 4.255089 3.646544
O 1.757153 6.657948 12.623222
O 6.413955 3.241227 6.668530
O 1.052782 2.441536 1.038609
O 3.604089 5.499520 0.248612
O 8.176066 6.938180 -4.200993
O 8.592668 12.251906 -3.654694
O 8.920461 11.620715 2.134229
O 1.037768 6.812903 -0.381641
O 1.659481 6.053911 4.705063
O 1.423399 5.101866 7.725030
O 4.479034 3.540766 -0.817284
O 3.922025 7.963609 10.018678
O 0.448785 4.485654 12.817295
O 1.883769 3.294605 4.118675
O 0.819134 1.066133 4.161306
