28

Li 1.987004 2.423724 8.423413
Li 5.838955 2.146655 9.180268
Li 5.790695 2.150102 4.406271
Li 3.986004 -0.286527 3.627101
Ti 1.923291 -0.138254 6.689622
Ti 1.068258 3.766357 1.909503
Ti 1.067969 1.213351 1.973603
Mn 1.995359 2.423154 4.531559
Mn 3.976032 -0.285887 9.192270
Cr 3.912402 2.285198 1.736779
Cr 4.858402 0.916544 6.586137
Cr 4.858484 -1.615189 6.649655
O 0.955612 3.837675 5.643063
O 0.306235 2.544589 3.191120
O 1.882395 2.431250 0.834787
O 0.063749 -0.004574 2.952017
O 0.013311 -0.000849 7.773373
O 0.955571 1.158103 5.710210
O 2.871569 3.522056 2.947665
O 2.871463 1.198209 3.006054
O 1.946409 -0.139917 0.871623
O 3.919270 2.284817 5.491881
O 3.066497 0.885541 7.930827
O 3.066521 -1.326443 7.986298
O 3.840345 -0.276104 5.615433
O 4.965938 0.914505 0.673305
O 5.653008 -0.406415 7.803925
O 4.965979 -1.628730 0.737066
