17

Li 4.222359 0.815728 3.422317
V 5.086088 -2.447557 0.089515
V 3.882562 0.514786 0.654236
V 2.612836 3.220677 1.682744
V 1.098324 1.773738 4.984969
O 4.364998 -0.986134 5.123151
O 4.299093 -1.044196 0.130576
O 4.071886 1.423501 -0.922079
O 3.503192 1.796447 1.620763
O 1.376442 2.897528 3.281533
F 3.763600 -0.566461 2.584666
F 3.542729 1.746831 4.961306
F 1.874892 0.374188 4.221090
F 1.676640 0.288915 0.863030
F 1.183934 0.621581 6.800132
F 0.902482 3.089831 0.737960
F 0.923852 3.132643 5.801162
