76

Li 1.864080 6.313001 2.192984
Li 1.879852 6.830573 10.010176
Li 2.386834 1.919638 3.851519
Li 2.394908 2.383368 8.357956
Li 6.158833 6.292275 3.778192
Li 6.179733 6.795708 8.293889
Li 6.673812 1.844518 2.157549
Li 6.710219 2.318385 10.064553
Mn 2.142689 8.421783 7.471445
Mn 2.148340 4.695303 4.712920
Mn 2.153203 0.300258 1.355580
Mn 2.155138 4.031833 10.871916
Mn 6.411857 4.633010 1.300086
Mn 6.419246 8.363101 10.813723
Mn 6.404305 0.210281 4.660051
Nb 6.448478 3.940515 7.449938
P 0.346696 2.136224 6.070345
P 3.979703 6.529362 -0.044599
P 4.571520 2.160396 -0.044163
P 8.311907 6.457104 5.984844
P 0.899426 3.454209 1.731527
P 0.907689 0.904939 10.505737
P 3.345640 5.270278 7.938225
P 3.382243 7.828662 4.249576
P 5.159938 0.781736 7.874532
P 5.139603 3.400120 4.236998
P 7.709250 5.199024 10.365765
P 7.660428 7.753333 1.670532
O 0.548929 5.610667 5.234600
O 0.534690 7.513997 7.017070
O 0.665342 7.872583 1.883244
O 0.694008 5.272997 10.288991
O 1.209998 1.433905 7.117827
O 1.218663 2.917062 5.086571
O 1.307274 3.792337 0.283309
O 1.327635 0.545943 11.934398
O 1.359915 2.011684 2.142401
O 1.370789 2.342205 10.084467
O 1.519259 4.490030 2.671679
O 1.489574 8.653042 9.523084
O 2.780074 0.108323 3.281347
O 2.783063 4.199296 8.928354
O 2.925745 6.687689 8.340568
O 2.927046 6.413275 3.854649
O 2.946457 4.861984 6.541703
O 2.947313 8.233240 5.646282
O 3.047466 7.318124 0.939298
O 3.032970 5.756936 11.241741
O 3.612081 0.831395 8.021749
O 3.591138 3.447109 4.196679
O 3.759635 1.211073 0.864473
O 3.755174 3.102684 11.310774
O 4.777983 5.579459 0.839993
O 4.781999 7.456209 11.304621
O 4.929073 5.202651 8.023177
O 4.942507 7.822826 4.119849
O 5.475245 2.922395 0.961361
O 5.476289 1.412216 11.235709
O 5.602780 0.447382 6.470359
O 5.576554 3.678988 5.744369
O 5.596162 1.997684 3.847360
O 5.637381 2.243536 8.257560
O 5.773059 4.491516 3.396845
O 5.775362 8.569217 8.857169
O 7.067866 0.011929 2.655127
O 7.119479 4.107476 9.361927
O 7.208519 6.322132 2.081282
O 7.240730 6.575632 9.900724
O 7.255414 4.811318 11.742876
O 7.252520 8.100696 0.245957
O 7.365937 5.649657 7.000498
O 7.337433 7.174476 5.064625
O 7.910396 0.792426 10.299829
O 7.910944 3.345208 1.773975
O 8.034326 1.074059 5.138434
O 8.019385 2.990288 6.821258
