24

Mn 2.159108 4.485499 2.152967
Mn 7.104136 4.485499 0.304584
Fe 2.728419 1.495166 4.736349
Fe 7.673447 1.495166 2.636303
P 0.962105 1.495166 2.048049
P 3.960601 4.485499 4.533925
P 5.907133 1.495166 0.409502
P 8.905629 4.485499 2.838727
O 0.525914 4.485499 3.141497
O 1.184156 1.495166 3.556602
O 1.712186 0.309099 1.323234
O 1.712186 2.681234 1.323234
O 3.256934 3.267273 3.852481
O 3.256934 5.703724 3.852481
O 3.781769 4.485499 1.155201
O 4.426898 1.495166 0.762666
O 5.470942 4.485499 4.231155
O 6.129184 1.495166 3.816050
O 6.657214 0.309099 1.134317
O 6.657214 2.681234 1.134317
O 8.201962 3.267273 3.520171
O 8.201962 5.703724 3.520171
O 8.726797 4.485499 1.302349
O 9.371926 1.495166 1.694884
