30

Li 1.662562 0.929691 0.757696
Li 3.624740 3.471049 4.116112
Li 4.469878 1.460887 2.439108
Li 6.967753 1.617422 0.709538
Li 8.929930 4.170292 4.067954
Li 9.775068 1.086227 2.390950
Mn 1.695401 0.903319 4.195350
Mn 3.592336 3.536015 0.710955
Mn 7.000592 1.643795 4.147192
Mn 8.897526 4.105326 0.662797
Si 0.962319 3.499668 2.451183
Si 4.371031 0.914200 5.747653
Si 6.267510 4.141673 2.403025
Si 9.676222 1.632914 5.699495
O 0.642597 1.269461 5.825410
O 0.970075 1.845384 2.468470
O 1.741365 4.074933 1.118257
O 1.763987 4.045005 3.769518
O 3.659117 1.487723 0.454501
O 3.661632 1.505731 4.363464
O 4.128001 4.374668 5.734053
O 4.698309 3.565113 2.401156
O 5.947787 1.277653 5.777252
O 6.275266 0.701730 2.420312
O 7.046556 3.566407 1.070100
O 7.069177 3.596336 3.721360
O 8.964308 1.059390 0.406343
O 8.966823 1.041382 4.315306
O 9.433191 3.266673 5.685895
O 10.003499 4.076227 2.352998
