24

V 4.688157 2.569958 1.449368
Ni 0.148657 7.209114 4.348104
Ni 2.225548 2.173847 4.348104
Ni 2.595222 7.518046 1.449368
P 0.384556 5.927611 1.449368
P 1.897357 0.873905 1.449368
P 2.872706 8.850589 4.348104
P 4.513022 3.903921 4.348104
O 0.695878 4.308993 1.449368
O 1.134792 6.532133 0.245517
O 1.134792 6.532133 2.653219
O 1.182802 3.863889 4.348104
O 1.342862 8.757281 4.348104
O 1.159248 1.694049 0.293665
O 1.159248 1.694049 2.605071
O 1.645637 9.331458 1.449368
O 3.176016 0.438375 4.348104
O 3.570803 8.114007 3.148323
O 3.570803 8.114007 5.547885
O 3.408253 1.217129 1.449368
O 3.712668 5.848225 1.449368
O 3.839469 3.085913 3.122228
O 3.839469 3.085913 5.573979
O 3.986529 5.316382 4.348104
