40

Li 6.403251 4.157742 5.983034
Li 2.373219 7.743021 8.054535
Li 5.502725 4.732061 9.606082
Li 7.352067 8.463084 7.186693
Ti 7.219676 9.925922 11.770519
Mn 1.315432 1.788421 2.098236
Mn 2.962052 4.155814 4.864156
Mn 5.576565 7.679490 9.107887
Cr 0.101621 7.822994 2.568443
Cr 4.208857 5.864432 6.973474
P 2.068075 5.305682 9.337624
P 4.874886 9.693173 6.497557
P 7.933789 5.577362 8.385603
P 0.473101 6.018128 5.402882
P 3.745602 2.112414 7.388450
P 6.361724 6.392523 4.496697
O 0.834820 2.676059 4.865837
O 2.509724 5.338027 3.275677
O 0.459738 7.299421 4.533470
O 4.804598 3.017015 4.724236
O 8.364638 10.189680 10.543747
O 2.125307 5.707428 5.804520
O 2.148243 1.544865 7.818477
O 3.917724 3.587939 6.785233
O 1.463716 3.867046 8.963502
O 5.153440 5.782369 5.324500
O 0.773151 6.253737 8.950330
O 3.540810 1.738074 2.964554
O 5.187541 9.988955 10.954483
O 7.660677 5.544265 4.803313
O 3.384904 6.087901 8.603639
O 6.921524 7.986136 12.058025
O 4.983924 8.255439 7.165590
O 6.563220 10.199122 6.047434
O 6.300200 6.030764 8.228863
O 8.066785 5.165342 7.228788
O 3.929213 8.865577 9.129210
O 7.728980 4.292338 9.339546
O 5.740153 6.283265 10.571347
O 7.814198 8.786649 8.837293
