13

Mn 0.000000 2.531353 1.744969
Mn 0.000000 0.000000 0.000000
Mn 2.949880 1.514609 1.550931
Mn 0.000000 2.531353 -0.793199
Co 2.949880 4.045962 0.757732
O 2.745719 2.795152 5.112416
O 5.688973 4.368033 6.598841
O 2.866056 5.341017 4.355602
O 5.680200 6.707911 5.788934
O 0.219560 1.384013 0.802868
O 3.033704 2.750903 2.236201
O 0.210781 3.723888 -0.007043
O 3.154041 5.296772 1.479386
