24

Li 1.610740 1.879560 12.313253
Li 3.555279 4.473665 5.500654
Mn 0.167016 4.235852 -0.169647
Mn 0.249957 4.346500 6.579961
Mn 0.014933 4.256408 3.023327
Mn 0.154244 4.442255 9.771184
Si 3.385640 4.167495 11.509104
Si 3.418198 4.075843 8.589479
Si 1.986199 2.165491 1.881783
Si 1.868948 2.144158 4.804040
O 0.970722 3.346822 1.775212
O 0.638223 3.202204 4.634371
O 1.621230 4.214630 8.507187
O 1.622193 4.514866 11.355987
O 1.666205 1.401170 3.362363
O 4.112405 4.664515 10.038549
O 4.203918 4.683599 7.314472
O 4.453715 4.747962 12.660949
O 1.688916 1.328471 0.640423
O 1.737303 1.124145 5.993157
O 3.804010 2.638532 8.810937
O 3.501776 2.681660 11.593559
O 3.765153 2.586696 2.059958
O 3.572417 2.775898 4.839179
