26

Li 2.597207 2.440357 1.459869
Li 7.766765 4.805473 4.602270
V 0.268135 4.718533 0.112302
V 4.917459 0.148767 2.959736
V 5.437693 2.527297 5.949837
V 10.087018 2.266510 3.006478
P 1.634842 4.361946 3.066098
P 3.566623 0.387502 0.009832
P 6.804400 2.883884 2.996041
P 8.736181 2.027775 5.956382
O 0.820047 3.681143 4.220161
O 0.934749 3.600835 1.841169
O 1.457547 1.046626 2.922491
O 2.139329 0.924051 0.060571
O 3.108166 3.942456 3.032674
O 3.678399 3.703938 0.153633
O 4.378926 1.001601 4.712045
O 4.327344 1.083063 1.255599
O 5.989605 3.564688 1.841978
O 6.104307 3.644996 4.220970
O 6.627105 1.368650 3.043723
O 7.308887 1.491226 5.905643
O 8.277724 3.303374 3.029465
O 8.847957 3.541892 5.908506
O 9.548484 1.413676 1.254169
O 9.496902 1.332214 4.710615
