15

Li 0.650807 1.597646 2.033582
Li 2.834822 2.030187 1.545736
Li 1.271311 2.767897 3.855166
Li 1.595668 -0.759290 2.339741
Li 3.545802 3.313286 3.506118
Li 4.175622 -0.236191 1.926568
Li 2.570215 0.613368 4.341451
Li 4.883539 0.978927 3.822415
V 0.079679 5.200656 3.195842
O 1.338561 3.368073 2.390288
O 2.058039 0.217587 1.093023
O 0.440690 1.020602 3.417454
O 5.004221 1.501555 2.406117
O 3.390456 2.286725 4.742807
F 4.121165 -0.715943 3.463939
