34

Mn 0.000000 0.000000 0.000000
Mn 3.566149 4.386989 2.271864
P 1.375927 5.008828 4.673977
P 1.137252 1.837543 2.311335
P 2.190222 0.621838 4.713698
P 2.428897 6.224533 -0.039471
P 4.703401 2.549446 4.583199
P 4.942076 8.152141 -0.169970
P 5.995045 6.936436 2.232393
P 5.756370 3.765151 -0.130249
O 0.402212 6.331654 4.662658
O 0.583386 3.761475 4.885740
O 1.169725 0.826412 5.854911
O 1.204681 0.975070 3.547257
O 2.361468 5.362059 5.840418
O 2.396423 5.213402 3.532764
O 1.153086 0.858665 1.218172
O 2.982762 8.148464 4.501935
O 1.243609 7.229539 0.053929
O 3.163937 1.944665 4.725017
O 2.322540 2.842541 2.217935
O 2.413063 5.245655 1.053692
O 4.719234 3.528324 3.490037
O 4.809757 5.931429 2.325793
O 3.968360 6.829314 -0.181289
O 5.888689 1.544448 4.489800
O 4.149535 0.625515 0.041793
O 5.979212 7.915313 3.325556
O 4.735874 3.560577 1.010964
O 4.770829 3.411920 -1.296690
O 5.927617 7.798909 0.996471
O 5.962572 7.947567 -1.311183
O 6.548911 5.012504 -0.342011
O 6.730086 2.442325 -0.118929
