76

Li 2.474969 1.933884 2.675040
Li 2.474969 7.166448 7.510457
Li 4.338248 2.616282 7.510457
Li 4.338248 6.484050 2.675040
Li 9.288186 2.616282 6.995794
Li 9.288186 6.484050 2.160377
Li 11.151465 1.933884 2.160377
Li 11.151465 7.166448 6.995794
Sn 1.361036 2.274455 9.187756
Sn 1.361036 6.825877 4.352339
Sn 5.452182 6.824621 9.187756
Sn 5.452182 2.275711 4.352339
Sn 8.174253 2.275711 0.483077
Sn 8.174253 6.824621 5.318494
Sn 12.265399 2.274455 5.318494
Sn 12.265399 6.825877 0.483077
S 0.000000 3.988548 2.417708
S 0.000000 5.111784 7.253125
S 2.055684 0.933412 5.838727
S 2.055684 8.166920 1.003310
S 4.757533 3.616754 1.003310
S 4.757533 5.483578 5.838727
S 6.813217 0.561618 7.253125
S 6.813217 8.538714 2.417708
S 8.868901 3.616754 3.832107
S 8.868901 5.483578 8.667524
S 11.570750 0.933412 8.667524
S 11.570750 8.166920 3.832107
O 0.577638 1.175754 5.773594
O 0.577638 7.924578 0.938177
O 0.553710 4.818507 3.513762
O 0.553710 4.281824 8.349179
O 1.086776 3.118247 1.868453
O 1.086776 5.982085 6.703870
O 2.270600 0.518846 1.259075
O 2.270600 8.581485 6.094492
O 2.628021 1.723075 6.972903
O 2.628021 7.377257 2.137486
O 2.692338 7.766869 9.393117
O 2.692338 1.333463 4.557700
O 4.120879 3.216703 9.393117
O 4.120879 5.883628 4.557700
O 4.185196 6.273241 6.972903
O 4.185196 2.827091 2.137486
O 4.542617 4.031320 6.094492
O 4.542617 5.069012 1.259075
O 5.726441 1.431919 6.703870
O 5.726441 7.668413 1.868453
O 6.259507 0.268341 3.513762
O 6.259507 8.831990 8.349179
O 6.235579 5.725920 5.773594
O 6.235579 3.374412 0.938177
O 7.390855 3.374412 3.897240
O 7.390855 5.725920 8.732657
O 7.366927 0.268341 1.321655
O 7.366927 8.831990 6.157072
O 7.899993 1.431919 7.802380
O 7.899993 7.668413 2.966963
O 9.083817 4.031320 8.411759
O 9.083817 5.069012 3.576342
O 9.441239 2.827091 2.697931
O 9.441239 6.273241 7.533347
O 9.505555 3.216703 5.113134
O 9.505555 5.883628 0.277717
O 10.934096 1.333463 0.277717
O 10.934096 7.766869 5.113134
O 10.998413 1.723075 7.533347
O 10.998413 7.377257 2.697931
O 11.355834 0.518846 3.576342
O 11.355834 8.581485 8.411759
O 12.539658 3.118247 2.966963
O 12.539658 5.982085 7.802380
O 13.072724 4.281824 6.157072
O 13.072724 4.818507 1.321655
O 13.048796 1.175754 8.732657
O 13.048796 7.924578 3.897240
