24

Li 0.517757 4.731846 7.344033
Li 0.816281 0.519162 0.026201
Li 4.729696 5.027773 4.904494
Li 5.028215 0.815061 2.465786
V 0.760327 2.306571 4.908139
V 2.305667 4.787883 2.468530
V 3.240288 0.759063 7.347192
V 4.785672 3.240281 0.029767
O 0.437867 3.706699 5.702961
O 1.838129 0.438248 8.140721
O 3.707793 5.108715 3.262111
O 5.108138 1.840247 0.824660
F 0.215811 4.543249 1.172511
F 0.710264 3.340564 8.617382
F 1.005349 0.215470 3.612886
F 1.746354 3.105678 3.356313
F 2.205617 0.711656 1.301367
F 2.443174 1.744767 5.794263
F 3.102820 3.802080 0.915732
F 3.340388 4.835240 6.179636
F 3.799662 2.441240 8.234835
F 4.540611 5.331471 8.491171
F 4.835714 2.206338 3.739047
F 5.330177 1.003730 6.051125
