18

V 1.392246 3.995808 4.690192
V 2.657455 5.114095 1.939370
V 4.151648 0.980076 3.441567
V 5.399481 2.117353 0.643462
V 6.230353 5.592011 1.246111
Co 0.596174 0.535092 4.110647
O 0.243818 5.447040 4.519464
O 0.600414 2.501287 4.657904
O 1.288729 6.394077 1.848451
O 2.524025 4.085266 3.391304
O 2.572232 0.346300 3.522645
O 2.362909 4.048278 0.622826
O 4.352613 2.086813 4.713032
O 4.298017 5.692636 1.844184
O 4.299635 1.931643 1.988697
O 5.497140 -0.294282 3.608240
O 6.141814 3.677563 0.689619
O 6.551280 0.642670 0.738845
