22

Li 0.842088 2.584699 7.632739
Li 1.717898 3.086272 2.445132
Li 3.402762 3.881031 7.536620
Li 4.254492 4.366284 2.330378
Mn 0.788517 3.423807 5.047951
Mn 3.401018 4.656953 10.086279
Mn 1.730285 2.292110 10.191173
Mn 4.254723 3.595885 4.922658
Mn 2.558222 1.256223 5.022989
Co 0.001482 4.442413 10.204527
O 0.037359 2.841447 1.010857
O 1.843689 3.710194 9.077562
O 0.675851 1.964459 3.999915
O 2.714037 4.193999 3.843444
O 2.549431 2.828470 6.047137
O 0.857823 0.461302 6.050857
O 4.279536 4.910005 6.073047
O 3.284162 3.237546 0.893707
O 1.822891 5.340014 0.826276
O 5.097990 4.108247 8.970635
O 3.309647 6.066724 9.060965
O 4.187535 2.095307 3.989541
