15

Li 0.000000 2.581608 1.638676
Li 2.938131 -1.497063 2.420715
Li 2.938131 1.084546 1.617340
Mn 0.000000 0.000000 0.000000
Mn 2.938131 1.084546 4.059391
Cr 0.000000 0.000000 2.442051
Cr 0.000000 2.581608 4.080727
O 4.404352 2.713493 4.425121
O 1.414140 1.696764 2.919834
O 1.233445 4.397632 4.450460
O 1.571171 1.870783 5.202980
O 4.305090 0.298309 2.915802
O 4.642817 -2.228540 3.668322
O 4.462122 0.472327 5.198949
O 1.471910 -0.544402 3.693661
