16

Li 0.000000 3.043521 0.522573
Li 3.043727 3.078912 -1.128341
Li 3.043727 0.035391 -1.650914
Li 3.043727 3.078912 -3.282743
Nb 0.000000 3.043521 -1.631829
Nb 3.043727 0.035391 0.503487
V 0.000000 0.000000 2.154402
V 0.000000 0.000000 0.000000
O 1.523696 4.572900 1.026981
O 1.582653 1.441462 0.521564
O 1.531962 4.581262 -1.110251
O 4.664298 4.558731 -4.933649
O 1.423155 1.599094 2.676966
O 4.555491 1.576562 -1.146432
O 4.504801 4.716363 -2.778247
O 4.563758 1.584924 -3.283664
