28

Li 1.947747 2.445157 9.141222
Li 5.912503 2.163475 9.942202
Li 0.032038 -0.002054 4.918216
Li 3.941966 -0.279940 4.098910
Ti 1.102283 3.741200 2.221975
Ti 1.102313 1.269314 2.208885
Ti 2.052767 -0.145666 7.263586
Ni 3.905136 2.306127 2.089695
Ni 4.928227 0.906733 7.260559
Ni 4.928173 -1.607434 7.248136
Te 2.060982 2.437155 5.136644
Te 4.015428 -0.285176 9.907802
O 1.097427 3.808630 6.149970
O 0.123131 2.574732 3.189945
O 1.852375 2.451976 1.075566
O 0.026522 -0.001781 2.942489
O 0.072678 -0.005320 8.043979
O 1.097647 1.202509 6.136445
O 2.787684 3.650710 3.294646
O 2.787696 1.120281 3.281187
O 2.004329 -0.142264 0.911304
O 4.040851 2.296409 6.034527
O 3.025511 0.889859 8.617305
O 3.025482 -1.319603 8.605857
O 3.827471 -0.271884 6.150794
O 4.933594 0.919979 0.904016
O 5.707130 -0.405374 8.620662
O 4.933600 -1.620703 0.890713
