35

Li 6.425219 -0.188812 5.287596
Mg 1.294579 2.843290 0.659381
Cr 2.956668 -0.907852 3.793763
Cr 5.486632 4.749330 5.119434
Cr 7.146183 0.837145 8.204045
Se 4.536385 3.705423 2.338174
Se 2.138401 4.893160 6.049742
S 0.304083 1.857128 2.876490
S 6.280972 -1.068511 2.800272
S 3.920860 0.032937 6.571213
S 8.079947 2.000888 6.079108
O 2.553875 6.264732 -0.054222
O 0.936057 6.796671 1.951755
O 0.017503 2.341539 1.737418
O 0.184159 3.053698 3.804280
O 0.213634 5.501030 5.451446
O 2.779405 3.353929 2.125105
O 4.405940 5.349505 2.191521
O 1.941561 0.928627 3.120544
O 5.754267 2.774467 1.425115
O 3.312762 4.475227 5.055722
O 5.470394 3.435872 3.670419
O 2.485794 3.513438 6.695543
O 6.015225 0.177340 2.217017
O 3.250988 0.240662 5.353240
O 5.179008 -0.625674 3.683609
O 2.867628 0.929090 7.331631
O 6.477466 3.013195 5.865915
O 4.182231 -1.428787 6.718257
O 5.547513 0.370928 6.775270
O 7.934284 -1.520407 3.410075
O 8.108158 0.792245 5.170946
O 8.287891 1.552045 7.220591
O 7.535774 -3.030072 7.003440
O 5.836951 -2.215823 8.967720
