44

Li 1.959320 3.788397 2.949575
Li 1.143223 1.746566 11.054906
Li 5.146720 0.849809 6.123222
Li 5.962817 4.000729 10.826149
Co 0.813559 1.118415 8.349555
Co 4.817056 1.477961 3.417870
Co 3.312742 3.815015 12.167442
Co 7.316240 3.974111 7.235758
P 0.133204 4.165557 10.332627
P 2.281737 1.120969 1.067955
P 1.733939 3.677522 6.815852
P 4.136702 3.623569 5.400942
P 3.887340 1.391688 10.313980
P 6.285235 1.475406 8.944529
P 5.737437 4.111604 14.692426
P 7.890838 1.204687 5.382295
O 0.353677 5.043849 3.046647
O 0.672564 1.376951 1.176319
O 0.229697 2.423898 3.316811
O 0.901235 4.153339 5.511317
O 2.484122 4.807874 0.936228
O 1.507741 2.191227 7.051931
O 1.573246 4.572555 7.978698
O 3.043875 1.737780 2.361638
O 1.611120 3.853037 11.002555
O 3.605838 4.607870 4.327050
O 2.359245 1.474648 9.726730
O 3.320933 3.822882 6.648021
O 3.969540 2.149420 5.006934
O 2.481912 1.904748 12.649528
O 5.576744 3.216572 3.047013
O 4.357175 2.745277 10.923221
O 4.676061 1.219424 9.052893
O 5.614617 3.936089 6.070870
O 4.233194 0.172477 11.193385
O 6.362743 1.121728 4.795046
O 4.904733 3.635787 13.387891
O 6.485410 0.691628 7.717844
O 6.487620 2.981252 8.812802
O 5.511239 0.405149 2.120246
O 7.047373 0.858595 10.238212
O 7.609336 3.181256 12.203624
O 7.324431 3.966244 14.524595
O 7.973038 0.446956 12.883508
