28

Li 1.956030 2.486030 8.739798
Li 5.987250 2.236047 9.255268
Li 0.045458 -0.002677 4.787571
Li 4.071929 -0.252426 3.737592
Mn 4.044766 2.356423 1.771428
Mn 5.049920 0.952030 6.668039
Mn 5.049859 -1.578177 6.741796
Cr 1.032408 3.838348 1.920909
Cr 1.032741 1.248221 1.996262
Cr 2.089305 -0.129470 6.899251
Te 2.076703 2.478557 4.543128
Te 3.984178 -0.246978 9.453857
O 1.123922 3.813572 5.566990
O 0.284294 2.589621 3.287874
O 2.050647 2.480180 0.943934
O 6.034244 2.233222 2.571791
O 0.025863 -0.001632 7.808549
O 1.123867 1.261695 5.641398
O 2.881224 3.598625 3.168244
O 2.881333 1.258666 3.236503
O 1.856040 -0.115035 0.884797
O 4.053344 2.355970 5.455961
O 2.995703 0.964728 8.117402
O 2.995643 -1.336009 8.184576
O 4.011039 -0.248591 5.785812
O 5.093242 1.034524 0.618254
O 5.771705 -0.357805 8.014134
O 5.093326 -1.665953 0.696917
