74

Li 2.565955 1.225476 2.191857
Li 6.405929 5.802865 5.471991
Li 1.274019 8.253816 1.088276
Li 5.113992 12.831206 4.368410
Ti 1.544499 11.559540 6.967344
Ti 0.434109 2.497141 6.018841
Ti 1.830761 7.028341 5.544695
Ti 3.322391 4.900005 6.591647
Ti 0.568485 9.156677 4.239240
Ti 3.271489 2.128336 6.649019
Ti 0.517582 11.928345 4.296612
Ti 2.009212 0.000000 5.343565
Ti 3.405865 9.525482 4.869419
Ti 2.295475 4.531199 3.920916
Ti 0.000000 0.000000 0.000000
Ti 5.087689 2.268116 4.345941
Ti 1.247715 4.760225 1.065807
Ti 3.839974 7.028341 3.280133
Ti 2.592259 11.788566 2.214326
Ti 6.432232 9.296457 5.494460
Ti 4.274083 4.531199 1.690848
Ti 5.384473 9.525482 2.639351
Ti 5.670735 0.000000 1.216702
Ti 7.162365 2.128336 2.263655
Ti 4.408459 11.928345 -0.088752
Ti 4.357556 9.156677 -0.031380
Ti 7.111462 4.900005 2.321026
Ti 5.849186 7.028341 1.015572
Ti 6.135448 2.497141 -0.407077
Ti 7.245838 11.559540 0.541426
O 1.673430 5.922530 7.189096
O 0.192506 8.134166 5.924080
O 1.622642 1.129033 7.104797
O 0.284596 12.927649 5.961828
O 3.079083 12.781923 6.413628
O 0.781696 1.274758 4.451183
O 2.113460 3.514170 5.609396
O 1.726514 10.542511 5.278864
O 3.058278 8.303099 6.437077
O 0.760891 5.753582 4.474632
O 4.793554 3.453403 6.055577
O 4.746968 10.481744 6.015782
O 0.953581 3.574937 2.775444
O 0.906994 10.603278 2.735649
O 3.555378 5.899308 4.926432
O 2.217331 8.157373 3.783463
O 3.647468 1.105825 4.964179
O 2.166544 12.950856 3.699163
O 6.485700 1.343903 5.540132
O 3.866469 3.443254 3.302766
O 0.026496 3.585086 0.022633
O 2.645726 5.684438 2.259999
O 5.034221 8.372244 4.300268
O 3.813478 10.613427 3.257501
O 1.194247 12.712778 1.020135
O 7.653452 10.471595 6.537634
O 5.513403 1.105825 2.861104
O 4.032479 12.950856 1.596088
O 5.462616 5.899308 2.776804
O 4.124569 8.157373 1.633835
O 2.932980 3.574937 0.544485
O 2.886393 10.603278 0.504690
O 6.772953 3.453403 3.824618
O 6.726367 10.481744 3.784823
O 4.621669 5.753582 0.123190
O 6.919057 8.303099 2.085635
O 5.953434 3.514170 1.281403
O 5.566487 10.542511 0.950871
O 4.600864 1.274758 0.146639
O 6.898252 12.781923 2.109084
O 7.395352 1.129033 0.598439
O 6.057305 12.927649 -0.544530
O 7.487442 5.922530 0.636187
O 6.006518 8.134166 -0.628830
