40

Mn 0.000000 0.000000 4.330050
Mn 0.000000 0.000000 0.000000
Mn 3.565213 3.919224 2.608023
Mn 3.565213 3.919224 -1.722027
P 0.974437 5.861152 6.405926
P 2.590776 1.941928 4.862196
P 1.786856 6.440719 1.901567
P 1.778357 2.521495 0.706456
P 5.352069 5.316953 4.509589
P 5.343569 1.397729 3.314478
P 4.539649 5.896520 0.353849
P 6.155989 1.977296 -1.189881
O 1.177490 7.070014 7.231605
O 0.516984 6.234733 5.147500
O 1.247874 1.074189 5.160597
O 2.317338 4.993413 6.107525
O 0.241008 2.936510 1.496933
O 3.048228 2.315509 6.120622
O 1.522795 7.508630 2.934879
O 0.664834 6.429173 1.013254
O 2.387723 3.150790 4.036517
O 1.938720 5.010845 2.386722
O 1.626493 1.091621 0.221300
O 3.806221 0.982714 4.104955
O 2.900379 2.509949 1.594769
O 2.042418 3.589406 -0.326856
O 5.088008 4.249042 5.542901
O 4.230046 5.328499 3.621276
O 3.324204 6.855734 1.111090
O 5.503933 6.746827 4.994745
O 5.191705 2.827603 2.829323
O 4.742703 4.687658 1.179528
O 6.465592 1.409275 4.202791
O 5.607630 0.329818 2.281166
O 4.082197 5.522939 -0.904577
O 6.889417 4.901938 3.719112
O 4.813087 2.845035 -0.891480
O 5.882551 6.764259 0.055448
O 6.613441 1.603715 0.068545
O 5.952935 0.768434 -2.015560
