24

Li 5.167175 2.788021 3.748240
Li 0.000129 7.493529 3.741504
Li 2.583549 8.560136 3.744794
Li 2.583740 1.725223 3.745025
V 5.166622 0.829207 1.253343
V 0.000548 10.808152 3.741398
V 2.582867 6.599371 1.250925
V 2.584355 5.038945 3.745143
O 1.019545 0.520961 2.775139
O 1.563983 6.290863 2.777706
O 3.602996 6.289467 4.710978
O 4.147459 0.520849 4.715671
F 1.064836 9.360558 3.058289
F 1.079780 2.070916 0.309381
F 1.131060 10.928697 0.324361
F 1.452034 5.159206 0.329381
F 1.505030 7.840043 0.312177
F 1.520774 3.591434 3.060132
F 3.646799 3.589955 4.430038
F 3.662358 7.839595 2.188630
F 3.715110 5.158660 2.171589
F 4.036053 10.927838 2.176369
F 4.087653 2.070075 2.191621
F 4.102582 9.360482 4.431212
