24

Ti 1.901142 -0.056882 6.355467
Ti 0.999510 3.771942 1.991418
Ti 0.996971 1.214412 1.948897
Mn 1.972394 2.423021 4.426605
Mn 3.906831 -0.230910 8.883484
Cr 3.920015 2.313757 1.946201
Cr 4.895098 0.978123 6.413450
Cr 4.801049 -1.553403 6.505110
O 1.020061 3.714731 5.546706
O 0.298733 2.541458 3.166550
O 1.911675 2.438896 0.962969
O 5.862099 2.185390 3.008527
O 5.829831 -2.897636 7.354373
O 1.022530 1.238578 5.439458
O 2.811653 3.447445 3.204154
O 2.818667 1.303983 3.153095
O 2.030222 -0.123551 0.991205
O 3.877559 2.265779 5.573273
O 3.088252 0.886984 7.608067
O 3.108632 -1.307027 7.618949
O 3.951398 -0.300485 5.454378
O 4.822280 0.953750 1.103369
O 5.569976 -0.329200 7.657290
O 4.826843 -1.548705 1.058115
