56

Li 0.000000 0.000000 0.000000
Li 0.000000 0.000000 0.000000
Li 0.000000 0.000000 0.000000
Li 0.000000 0.000000 0.000000
Li 0.000000 0.000000 0.000000
Li 0.000000 0.000000 0.000000
Ti 0.000000 0.000000 0.000000
Ti 0.000000 0.000000 0.000000
Ti 0.000000 0.000000 0.000000
Ti 0.000000 0.000000 0.000000
Ti 0.000000 0.000000 0.000000
Ti 0.000000 0.000000 0.000000
Ti 0.000000 0.000000 0.000000
Ti 0.000000 0.000000 0.000000
Ti 0.000000 0.000000 0.000000
Ti 0.000000 0.000000 0.000000
Ti 0.000000 0.000000 0.000000
Ti 0.000000 0.000000 0.000000
Zn 0.000000 0.000000 0.000000
Zn 0.000000 0.000000 0.000000
Zn 0.000000 0.000000 0.000000
Zn 0.000000 0.000000 0.000000
Zn 0.000000 0.000000 0.000000
Zn 0.000000 0.000000 0.000000
O 0.000000 0.000000 0.000000
O 0.000000 0.000000 0.000000
O 0.000000 0.000000 0.000000
O 0.000000 0.000000 0.000000
O 0.000000 0.000000 0.000000
O 0.000000 0.000000 0.000000
O 0.000000 0.000000 0.000000
O 0.000000 0.000000 0.000000
O 0.000000 0.000000 0.000000
O 0.000000 0.000000 0.000000
O 0.000000 0.000000 0.000000
O 0.000000 0.000000 0.000000
O 0.000000 0.000000 0.000000
O 0.000000 0.000000 0.000000
O 0.000000 0.000000 0.000000
O 0.000000 0.000000 0.000000
O 0.000000 0.000000 0.000000
O 0.000000 0.000000 0.000000
O 0.000000 0.000000 0.000000
O 0.000000 0.000000 0.000000
O 0.000000 0.000000 0.000000
O 0.000000 0.000000 0.000000
O 0.000000 0.000000 0.000000
O 0.000000 0.000000 0.000000
O 0.000000 0.000000 0.000000
O 0.000000 0.000000 0.000000
O 0.000000 0.000000 0.000000
O 0.000000 0.000000 0.000000
O 0.000000 0.000000 0.000000
O 0.000000 0.000000 0.000000
O 0.000000 0.000000 0.000000
O 0.000000 0.000000 0.000000
