28

Li 0.018596 10.582159 0.011311
Li 0.018596 10.582159 3.021066
Li 2.422300 5.406390 3.006880
Li 2.422300 5.406390 0.025502
Co 0.102900 7.772155 4.548574
Co 2.336370 2.152135 4.548574
Co 2.563438 8.302744 1.516191
Sn 4.787287 2.812749 1.516191
P 0.428761 6.539620 1.516191
P 2.097060 0.689840 1.516191
P 2.829628 9.540586 4.548574
P 4.244871 4.238642 4.548574
O 1.066134 5.097727 1.516191
O 1.067100 7.240242 0.270664
O 1.067100 7.240242 2.761718
O 0.935732 4.196106 4.548574
O 1.290279 9.579577 4.548574
O 1.551803 1.480637 0.256436
O 1.551803 1.480637 2.775946
O 1.381907 10.056069 1.516191
O 3.452743 0.224655 4.548574
O 3.469032 8.751984 3.325960
O 3.469032 8.751984 5.771188
O 3.626528 0.520949 1.516191
O 3.721268 6.340707 1.516191
O 3.489365 3.576646 3.342620
O 3.489365 3.576646 5.754529
O 3.824713 5.743286 4.548574
