44

Li 0.960250 1.789802 4.999441
Li 3.358857 4.989202 1.679842
Li 2.415417 4.872111 6.265242
Li 1.903690 1.672710 9.824790
Li 6.734525 4.726090 3.533777
Li 6.222797 1.526690 7.093325
Li 5.279357 1.409598 11.678725
Li 7.677965 4.608998 8.359126
Bi 0.120149 0.150897 7.497203
Bi 4.439256 3.048504 4.765738
Bi 4.198958 3.350297 8.592829
Bi 8.518065 6.247904 5.861364
B 2.411487 1.021191 2.864782
B 1.907620 4.220591 3.814501
B 1.458951 4.341797 9.040809
B 2.860156 1.142397 7.049224
B 5.778058 5.256403 6.309344
B 7.179263 2.057003 4.317758
B 6.730594 2.178209 9.544066
B 6.226727 5.377609 10.493785
O 0.575357 4.654775 3.297680
O 1.098384 1.218172 3.326627
O 2.329364 0.326582 1.732875
O 1.989744 3.525982 4.946409
O 3.220732 4.417572 3.352661
O 0.244876 5.042824 9.319945
O 2.001742 0.388638 6.183797
O 3.743759 1.455375 3.381608
O 1.871322 4.497486 7.863140
O 2.447785 1.298086 8.226893
O 2.317365 3.588038 9.906235
O 4.074231 1.843424 6.770088
O 4.563983 4.555376 6.588479
O 6.320849 2.810763 3.452332
O 6.190429 5.100714 5.131674
O 6.766892 1.901314 5.495428
O 4.894464 4.943425 9.976963
O 6.636472 6.010163 7.174770
O 8.393338 1.355976 4.038623
O 5.417491 1.981229 10.005910
O 6.648471 2.872818 8.412158
O 6.308851 6.072218 11.625693
O 7.539831 5.180629 10.031941
O 8.062857 1.744025 10.060888
