32

Li 0.151100 5.885376 0.655864
Li 0.151100 5.885376 3.407124
Li 3.131123 2.054434 4.718851
Li 3.131123 2.054434 7.470111
Li 3.433324 5.607449 0.655864
Li 3.433324 5.607449 3.407124
Li 6.413346 1.776507 4.718851
Li 6.413346 1.776507 7.470111
Mn 1.543807 3.013687 2.031494
Mn 1.738416 6.844628 6.094481
Mn 4.826030 0.817255 2.031494
Mn 5.020639 4.648196 6.094481
F 0.167623 0.486844 6.094481
F 0.537366 4.596019 2.031494
F 0.507714 5.441017 6.094481
F 1.433124 2.701687 0.126668
F 1.433124 2.701687 3.936320
F 1.849099 6.532629 4.189655
F 1.849099 6.532629 7.999307
F 2.774509 1.610076 2.031494
F 2.744858 0.765077 6.094481
F 3.114600 4.317785 2.031494
F 3.449846 3.344098 6.094481
F 3.819589 6.896806 2.031494
F 3.789937 6.051807 6.094481
F 4.715347 1.129254 3.936320
F 4.715347 1.129254 0.126668
F 5.131323 4.960196 7.999307
F 5.131323 4.960196 4.189655
F 6.056732 2.220866 2.031494
F 6.027081 3.065864 6.094481
F 6.396823 7.175039 2.031494
