44

Li 5.218228 8.336266 3.260295
Li 6.945303 1.611486 4.219763
Li 1.163717 11.838075 0.766942
Li 2.890793 5.113294 1.726411
Cr 5.950764 4.467043 3.524413
Cr 1.896254 2.257737 1.031060
Cr 2.158256 8.982518 1.462288
Cr 6.212767 11.191823 3.955646
P 2.225407 7.112450 3.982080
P 5.883613 6.337110 1.004626
P 3.735096 2.395716 3.654434
P 7.789606 4.329064 1.106501
P 6.279917 13.061890 1.434148
P 0.319414 9.120497 3.880204
P 4.373924 11.053844 1.332272
P 1.829103 0.387670 3.552558
O 6.607189 12.853651 2.953531
O 3.440438 2.899443 0.030881
O 2.987128 8.173110 3.127481
O 5.752790 7.733874 1.490740
O 3.436392 0.810941 3.661284
O 4.672628 12.638619 1.325422
O 1.067382 1.448329 4.407157
O 2.826464 3.029675 2.596112
O 5.556341 6.128871 4.526528
O 1.698280 12.440467 4.038672
O 0.618118 7.535721 3.873354
O 5.219371 2.607708 3.341351
O 2.356230 5.715687 3.495966
O 0.614072 9.624223 2.462472
O 2.552679 7.320690 0.460178
O 5.121892 5.276451 1.859224
O 7.494949 3.825337 2.524234
O 2.889649 10.841852 1.645354
O 7.041638 12.001231 0.579549
O 6.410740 1.009094 0.948033
O 1.501831 0.595910 2.033175
O 7.490902 5.913839 1.113351
O 1.164861 4.117072 0.847998
O 5.282556 10.419886 2.390593
O 6.880974 3.695105 0.048180
O 6.944160 9.332489 4.138707
O 1.228046 9.754455 4.938526
O 4.668582 10.550118 4.955825
