23

Li 2.291837 1.390054 2.913680
Li 6.036727 4.113627 6.204165
Li 7.529298 1.590371 4.745340
Cr 2.685405 4.189520 4.839579
Cr 5.608971 1.332265 1.640680
P 3.456443 3.883687 1.626879
P 4.803670 1.671242 4.795692
C 0.358965 3.547691 4.815001
C 7.927009 1.948530 1.591719
O 0.784297 1.861617 1.778362
O 0.672053 4.806997 4.841019
O 1.401655 2.726109 4.661372
O 2.594987 4.181415 0.396367
O 2.649980 4.372937 2.851897
O 3.513470 0.910942 4.668590
O 3.842149 2.373897 1.770217
O 4.474651 3.180402 4.959699
O 4.794222 4.661295 1.501936
O 5.723813 1.182554 5.974632
O 5.770919 1.409732 3.580535
O 6.864369 2.798424 1.417603
O 7.541776 0.712299 1.613833
O 7.489241 3.592866 4.936373
