28

Li 1.925779 2.403509 8.402649
Li 0.049134 -0.014752 9.335105
Li 0.053662 -0.011067 4.636372
Li 3.830973 -0.265846 3.648452
Mn 1.907635 2.346239 4.486090
Mn 3.850499 -0.231097 9.162113
Fe 3.838573 2.264816 1.885615
Fe 4.827683 0.896384 6.578758
Fe 4.806503 -1.564948 6.592073
Co 0.990169 3.668374 1.968293
Co 1.006867 1.213099 1.983802
Co 1.987712 -0.142218 6.648728
O 0.957149 3.697368 5.594976
O 0.223476 2.487468 3.136380
O 1.805093 2.359799 0.985260
O 0.109673 0.020719 2.851479
O 0.064432 -0.051432 7.566569
O 0.985305 1.171327 5.574857
O 2.731276 3.431956 3.159288
O 2.681269 1.179475 3.154350
O 1.905558 -0.114746 0.907714
O 3.863304 2.204861 5.497634
O 2.978650 0.904050 7.791871
O 2.968257 -1.275976 7.883145
O 3.825172 -0.211579 5.601975
O 4.824438 0.933689 0.808426
O 5.543779 -0.313530 7.820153
O 4.863959 -1.555749 0.792769
