18

V 2.433187 5.117397 0.680201
V 2.302495 7.856444 2.410424
V 2.338873 2.876072 4.407022
V 0.013436 5.255220 3.470863
V 4.539914 2.625394 1.788894
V 0.024125 0.025019 5.586643
O 3.757614 3.540105 3.275462
O 3.757339 0.895954 1.543423
O 3.203593 6.113148 2.237223
O 3.342602 3.437571 0.543277
O 1.424553 4.551062 4.652004
O 1.361066 1.884487 2.853485
O 0.867118 7.115976 3.627748
F 3.717999 6.159125 5.058246
F 3.226054 0.969651 4.405767
F 1.381036 6.976151 0.758240
F 0.981323 1.855926 0.099195
F 0.914250 4.373630 1.825535
