37

Na 0.123394 -0.051267 7.027602
Na 4.182526 1.749082 4.456391
Li 6.498812 -1.319635 5.105116
Ti 2.984511 -1.038607 3.842249
Ti 7.345144 0.672290 8.379560
Ti 5.504621 4.373059 5.084623
Al 1.290768 2.706578 0.593465
P 0.316610 1.782795 2.779997
P 3.932454 -0.049436 6.695899
P 6.488933 -1.347095 2.908799
P 2.133129 4.629698 6.085021
P 4.570579 3.438675 2.274775
P 8.223496 1.519399 6.119553
O 0.387101 1.837446 1.536311
O 1.909007 0.862060 3.414027
O 0.057902 3.233930 3.456185
O 4.211032 -1.530596 6.992931
O 2.358889 0.863875 7.061126
O 3.885211 -0.114814 5.402559
O 6.165386 -2.510932 9.009294
O 5.027683 -0.705269 3.540108
O 1.820241 3.489052 6.571215
O 0.668946 5.332800 5.204489
O 7.420017 -3.152310 7.022505
O 3.101868 2.883551 1.698971
O 5.437157 0.505461 7.263609
O 1.133836 6.456933 1.882029
O 7.925684 -1.968813 3.840334
O 6.751071 -0.166963 2.412497
O 3.630757 4.012584 5.505665
O 2.472979 5.825661 -0.025877
O 4.786152 3.439586 3.573567
O 6.179518 2.547655 1.898635
O 4.399617 4.925830 2.023454
O 8.449462 0.059175 5.488474
O 6.663215 2.462952 5.475315
O 8.066366 1.580543 7.364033
