20

Li 2.589696 4.225602 3.241019
Li 2.666857 2.636617 1.001421
Li 5.255874 0.641825 0.226233
Li 0.015553 0.028695 4.615578
Ti 2.694458 1.077089 3.439156
Ti 0.032591 4.616599 1.851340
Fe 5.300253 2.130490 2.376629
Fe 0.017738 6.360154 4.044198
Fe 2.665908 5.795373 0.748039
Fe 2.620176 7.358274 2.894769
O 3.961596 5.484961 3.744217
O 1.226217 4.473786 5.017630
O 3.820139 0.890405 1.971249
O 4.199797 3.963839 1.389085
O 1.285746 5.919799 2.318610
O 1.340571 -0.124905 2.965640
O 1.307084 2.906710 2.658065
O 3.941865 -0.558463 -0.386877
O 3.968076 2.447948 -0.632068
O 1.466279 1.298499 0.318192
