28

Na 3.981481 1.726657 8.524502
Na 1.238966 6.815731 7.311218
Na 1.238966 3.544213 7.311218
Na 4.039924 3.362417 1.799413
Na 4.039924 0.090898 1.799413
Na 1.297409 5.179972 0.586129
Li 0.000021 0.000007 4.747813
Li 0.000021 3.453308 4.747813
Mn 3.852133 5.179972 6.160826
Mn 1.426757 1.726657 2.949805
B 3.855221 5.179972 8.675993
B 1.423669 1.726657 0.434638
P 3.622015 1.726657 5.233354
P 1.656875 5.179972 3.877277
O 1.513167 1.726657 8.566198
O 5.066478 5.179972 7.928050
O 2.698157 5.179972 7.907891
O 4.126698 0.464395 5.988634
O 4.126698 2.988920 5.988634
O 0.896039 5.179972 5.292113
O 2.089432 1.726657 5.076231
O 3.189458 5.179972 4.034400
O 4.382851 1.726657 3.818518
O 1.152192 3.917710 3.121997
O 1.152192 6.442235 3.121997
O 2.580733 1.726657 1.202740
O 0.212412 1.726657 1.182582
O 3.765723 5.179972 0.544433
