13

Cr 3.719805 2.578174 5.081625
Cr 0.829388 3.636140 4.470808
Cr 3.719805 5.081348 5.916016
Fe 0.010936 0.014939 4.815167
Fe 3.718627 5.079739 3.581613
O 4.982477 4.477435 5.084484
O 2.293461 3.132927 3.739976
O 2.293461 5.461683 4.516228
O 2.341248 3.198204 5.835316
O 5.188339 7.087402 6.009904
O 5.188644 4.655664 7.468723
O 2.380233 5.683614 6.875236
O 5.188644 7.087819 8.279441
