18

Li 2.353950 5.377291 1.808210
Li 3.488523 0.069702 0.530363
Sb 0.000000 3.823647 -0.931947
Sb 0.000000 0.000000 0.000000
P 2.197652 0.925902 2.624904
P 3.644821 4.521091 -0.286331
H 0.281607 2.404904 1.258145
H 5.560866 3.042089 1.080428
O 0.405608 5.378419 2.508141
O 1.252562 2.252246 2.671267
O 2.094451 4.277821 0.122381
O 1.612020 -0.084317 1.595350
O 2.205043 0.249821 3.904760
O 3.637431 5.197173 -1.566187
O 4.230453 5.531310 0.743223
O 3.748023 1.169173 2.216192
O 4.589912 3.194747 -0.332694
O 5.436866 0.068567 -0.169566
