59

Li 4.197484 0.020519 4.233113
Li 1.053793 1.040526 1.067991
Li 7.360050 1.052069 7.379795
Li 1.070947 3.177525 3.157197
Li 7.359561 3.172248 5.257314
Li 3.171943 3.163633 1.067495
Li 5.265735 3.151590 7.392748
Li 1.052166 5.279537 5.245617
Li 3.173216 5.284270 7.368294
Li 6.333548 6.315319 2.091460
Li 1.035837 7.373541 7.342538
Ti 7.293452 0.987713 3.171860
Ti 1.075152 0.995057 5.223927
Ti 3.220695 1.014010 7.352781
Ti 7.315410 3.191935 1.103724
Ti 5.245589 3.167282 3.145290
Ti 3.203102 3.144033 5.209791
Ti 1.031540 5.310754 1.106833
Ti 7.330846 5.337936 7.396863
Ti 5.267555 5.351952 5.186413
Ti 1.054719 7.355883 3.167571
Ti 3.237185 7.376753 1.123774
Ti 5.282452 7.398634 7.369315
Ni 5.267109 1.026054 1.095981
Ni 1.051315 3.160576 7.368523
Ni 3.195822 5.306894 3.155658
Ni 7.332607 7.383163 5.225652
O 7.542216 1.084309 5.160400
O 0.922004 0.979142 3.225045
O 3.142917 0.940529 0.885959
O 5.199483 0.971704 7.465432
O 7.390686 1.234356 1.184371
O 5.393454 1.179974 3.155405
O 3.066503 1.150946 5.359614
O 1.148415 1.055515 7.233125
O 5.333353 3.081256 1.151022
O 7.297648 3.040282 3.102414
O 1.192271 3.064946 5.260773
O 3.159145 3.026646 7.275740
O 0.956230 3.298102 1.051437
O 7.370018 3.267701 7.518672
O 5.200949 3.299150 5.195776
O 3.252570 3.252450 3.226820
O 0.914075 5.266680 7.459730
O 7.463915 5.185565 0.964089
O 5.254824 5.156141 3.287190
O 3.279963 5.101511 5.280941
O 1.139449 5.358223 3.086058
O 2.989339 5.387880 1.031257
O 5.331878 5.349999 7.241116
O 7.255671 5.258874 5.437839
O 3.040703 7.363779 3.025571
O 1.184764 7.309489 1.117797
O 7.282364 7.316831 7.285449
O 5.278231 7.254114 5.380986
O 7.491493 7.509753 3.171794
O 0.966501 7.439432 5.165970
O 3.233831 7.440365 7.496123
O 5.139281 7.391851 0.930532
