14

P 2.589609 4.244114 8.639608
P 2.774697 0.550096 4.382665
W 2.687157 5.930726 7.465628
W 2.682514 2.395347 6.512776
O 1.800200 5.466617 7.791876
O 0.734160 4.195705 2.800726
O 2.572884 4.174494 6.587714
O 3.057000 2.970225 8.140251
O 2.289250 1.820041 4.870744
O 4.754589 4.345762 10.841548
O 0.621115 0.442941 2.182811
O 2.810463 0.613188 6.449074
O 4.632570 0.602151 10.226718
O 3.570446 -0.674610 5.232858
