48

Mn 0.307095 7.119050 10.446069
Mn 2.141593 2.159657 4.476887
Fe 0.151006 7.212683 4.476887
Fe 2.297682 2.253290 10.446069
Fe 2.618073 7.683012 7.475028
Fe 2.618073 7.683012 1.478745
Fe 4.727989 2.723619 1.505846
Fe 4.727989 2.723619 7.447927
P 0.406722 5.922785 7.441361
P 0.406722 5.922785 1.512412
P 2.041965 0.963392 7.481594
P 2.041965 0.963392 1.472179
P 2.846682 8.920916 10.446069
P 2.840046 8.969498 4.476887
P 4.499380 3.961523 4.476887
P 4.506016 4.010105 10.446069
O 0.750665 4.432269 7.468366
O 0.750665 4.432269 1.485407
O 1.122277 6.668886 0.317250
O 1.117405 6.664918 2.704636
O 1.117405 6.664918 6.249137
O 1.122277 6.668886 8.636523
O 1.138840 3.767512 4.476887
O 1.122062 3.799807 10.446069
O 1.326625 8.759200 4.476887
O 1.309847 8.726905 10.446069
O 1.331283 1.705525 0.279955
O 1.326410 1.709493 2.667341
O 1.331283 1.705525 8.673818
O 1.326410 1.709493 6.286432
O 1.698023 9.391662 1.499184
O 1.698023 9.391662 7.454589
O 3.175144 0.555065 4.476887
O 3.135358 0.508685 10.446069
O 3.554970 8.242134 5.675391
O 3.521168 8.208231 9.228988
O 3.554970 8.242134 3.278382
O 3.521168 8.208231 11.663149
O 3.552453 1.182647 7.478346
O 3.552453 1.182647 1.475427
O 3.793609 6.142039 1.509164
O 3.793609 6.142039 7.444609
O 3.824894 3.248839 5.693967
O 3.791092 3.282741 9.247564
O 3.791092 3.282741 11.644573
O 3.824894 3.248839 3.259806
O 4.210704 5.468078 4.476887
O 4.170918 5.514458 10.446069
