27

Mg 0.705445 0.963655 1.811790
Fe 2.951841 4.032290 4.734268
Fe 2.970325 4.057540 7.132133
Fe 5.942578 5.543666 10.104386
Fe 0.745033 1.017734 6.586125
Fe 2.970325 6.631587 8.848164
Fe 5.285734 7.220447 12.390845
Fe 0.090033 2.639170 8.940096
Fe 2.995470 4.091888 11.845533
Fe 2.995470 1.575706 10.168078
Fe 5.221204 7.132298 17.252547
O 1.536518 2.098922 3.759424
O 4.221196 3.441261 6.444102
O 1.546049 2.111942 5.913953
O 1.536518 4.423922 5.309424
O 4.536261 3.696039 8.871004
O 4.425536 6.045394 8.305148
O 1.648807 4.752921 7.650623
O 4.536261 6.196648 10.538077
O 1.424503 1.945907 8.407336
O 4.424055 3.445684 11.406889
O 1.544855 2.110312 10.722487
O 1.424503 4.543596 10.139129
O 4.452996 6.082906 13.089651
O 4.404109 3.616586 13.762825
O 4.404109 6.016125 15.362518
O 1.633361 4.630751 12.591769
