92

Mn 0.000000 5.234709 2.201190
Mn 2.343548 9.297644 6.929989
Mn 4.675649 2.896884 7.256408
Mn 7.007751 -3.503876 7.582828
H 0.168856 2.743780 1.399293
H 7.046493 -0.710125 1.529116
H 3.244891 1.023019 1.512586
H 0.032664 0.386426 1.853132
H 5.022339 -2.088478 1.864334
H 7.538895 2.480952 3.124800
H 2.600101 4.946727 3.140505
H 3.695427 0.913271 2.987856
H 1.229322 7.093773 6.469742
H 6.371769 1.036756 6.317093
H 2.357313 1.649552 6.454512
H 1.956039 3.240999 6.332798
H 4.817490 0.404377 6.584335
H 8.469340 -1.589206 6.567805
H 0.327080 0.239218 6.908350
H 4.706499 -1.930558 6.919553
H 4.644799 7.724326 7.593263
H 9.024218 5.554550 7.604466
H 0.881958 7.382974 7.945012
H 4.533809 5.389392 7.928481
H 7.395259 2.552770 8.180019
H 6.993986 4.144216 8.058305
H 2.979529 4.757013 8.195723
H 8.121977 -1.300004 8.043075
H 5.655871 4.880498 11.524960
H 6.751198 0.847042 11.372312
H 1.812403 3.312817 11.388017
H 4.328959 7.882246 12.648482
H 9.318634 5.407342 12.659685
H 6.106407 4.770749 13.000230
H 2.304805 6.503893 12.983700
H 9.182442 3.049988 13.113524
S 7.199583 -3.217857 0.492772
S 4.672591 3.090579 4.308380
S 9.176588 0.454248 5.149218
S 2.492869 -0.864500 5.547990
S 6.858429 6.658268 8.964826
S 0.174710 5.339520 9.363598
S 4.678707 2.703189 10.204437
S 2.151715 9.011626 14.020045
O 8.772743 -3.213452 0.988613
O 6.340489 -2.006590 1.006171
O 0.825720 3.472655 1.691464
O 7.279200 0.205733 1.851652
O 3.367814 0.403548 2.203858
O 0.420500 -0.210250 2.527609
O 4.269074 8.334881 6.929989
O 5.976200 3.348609 3.572143
O 9.220754 -0.130849 3.814498
O 3.392726 4.014401 4.050767
O 4.332700 1.709355 4.165114
O 2.642312 -0.626678 4.189156
O 7.559515 -2.629179 4.368126
O 6.531817 6.052931 5.089472
O 2.021994 8.763943 5.268442
O 0.870914 6.158256 5.292484
O 7.643153 0.937077 5.406831
O 5.219624 3.380077 5.643100
O 0.316252 3.974583 5.885455
O 1.626200 0.359820 6.043832
O 4.050188 -0.861439 6.061390
O 2.644828 2.563101 6.746683
O 5.506755 1.091956 6.906871
O 1.503296 7.630315 7.253740
O 7.848002 -1.836546 7.259076
O 3.844543 4.701813 7.605946
O 6.706471 3.230667 7.766134
O 8.930799 -4.465400 7.582828
O 5.082225 -2.541113 7.582828
O 5.301111 6.655208 8.451427
O 7.725098 5.433948 8.468985
O 9.035047 1.819186 8.627362
O 4.131675 2.413691 8.869717
O 1.708146 4.856691 9.105985
O 8.480384 -0.364487 9.220333
O 7.329305 -2.970174 9.244375
O 2.819482 -0.259163 9.423344
O 1.791784 8.422948 10.144691
O 6.708986 6.420447 10.323660
O 5.018599 4.084413 10.347702
O 5.958573 1.779368 10.462050
O 0.130544 5.924617 10.698318
O 3.375099 2.445159 10.940673
O 5.983484 5.390220 12.308959
O 2.072098 5.588036 12.661164
O 8.525579 2.321113 12.821352
O 3.010810 7.800359 13.506645
O 0.578555 9.007220 13.524203
