14

Li 2.909793 1.429997 2.452142
Li 2.909793 3.935410 0.791188
Fe 0.000000 0.000000 0.000000
Co 0.000000 2.505413 -1.660953
Co 2.909793 1.429997 0.000267
Co 2.909793 3.935410 -1.660686
O 1.504334 0.821722 3.803282
O 1.665914 3.111856 -0.531783
O 1.504334 3.303614 2.157922
O 4.143481 2.254049 3.773653
O 1.676105 5.616770 -2.191276
O 4.315251 4.567205 -0.575545
O 4.153671 4.758963 2.114159
O 4.315251 7.049097 -2.220905
