50

Li 0.133068 1.770996 0.159870
Li 1.263597 16.781085 1.517075
Li 3.127850 17.929842 4.036213
Li 2.010153 3.079485 2.693507
Li 2.705532 12.320720 3.529316
Li 5.006543 19.263597 6.572394
Li 4.576154 13.547382 6.055968
Ti 0.540226 7.170000 0.649146
Ti 0.833203 11.070517 1.001562
Ti 1.048220 13.923034 1.258838
Ti 0.335198 4.447656 0.401930
Ti 1.521766 20.216193 1.827743
Ti 3.404916 21.599174 4.368243
Ti 1.739399 -0.518241 2.368127
Ti 2.223823 5.916122 2.951097
Ti 2.911275 15.048988 3.776317
Ti 3.621758 0.867757 4.908862
Ti 4.101653 7.239659 5.486337
Ti 4.308445 9.993402 5.734563
Nb 4.792565 16.413276 6.314645
O 0.031585 22.485988 1.307688
O 0.081851 3.510101 1.664049
O 3.063169 20.969752 1.291115
O 0.766486 12.588457 2.430441
O 1.804404 21.599671 3.282341
O 1.310311 17.053796 3.222607
O 0.576376 7.952588 2.222702
O 0.349551 10.466288 3.941336
O 1.255804 19.475328 4.766775
O 1.684548 5.170826 1.499170
O 2.611096 14.074949 2.294070
O 3.195852 18.504678 2.444297
O 2.603863 9.338136 1.477942
O 1.354229 14.704556 4.404736
O 0.841469 5.592723 3.741151
O 4.471268 15.471574 3.156740
O 4.008554 6.235244 2.404293
O 2.545994 11.698298 5.139676
O 1.927227 2.587350 4.296295
O 2.350522 7.064687 4.542364
O 3.214174 16.101506 5.261323
O 3.905533 1.597067 1.981003
O 4.650814 10.645112 2.835196
O 4.523657 13.119465 4.336433
O 3.923397 4.051164 3.347159
O 3.332699 -0.489462 3.459472
O 4.503624 8.387803 4.376381
O 2.091284 0.131849 5.451827
O 5.064675 17.570104 5.055955
O 5.114417 -1.380962 5.423466
