32

Li 0.853167 3.983807 5.565011
Li 1.735788 0.968390 0.761425
Li 3.602241 3.479136 3.962974
Li 4.484863 1.473065 2.363461
Li 6.191196 3.548433 5.565011
Li 7.073817 1.542357 0.761425
Li 8.940270 4.053103 3.962974
Li 9.822892 1.037687 2.363461
Si 0.904892 3.454411 2.359696
Si 4.433137 0.943664 5.561246
Si 6.242921 4.077829 2.359696
Si 9.771166 1.567082 5.561246
Ni 1.761838 0.969535 3.928539
Ni 3.576191 3.480281 0.726989
Ni 7.099867 1.541212 3.928539
Ni 8.914220 4.051958 0.726989
O 0.649820 1.026936 5.552102
O 0.922315 1.803760 2.346493
O 1.683636 3.991032 3.721027
O 1.699169 3.971825 1.007368
O 3.638860 1.461079 4.208917
O 3.654393 1.480286 0.519477
O 4.415714 4.314507 5.548043
O 4.688209 3.537682 2.350552
O 5.987849 1.483811 5.552102
O 6.260344 0.706986 2.346493
O 7.021665 3.541207 3.721027
O 7.037198 3.560414 1.007368
O 8.976889 1.049668 4.208917
O 8.992422 1.030461 0.519477
O 9.753743 3.217733 5.548043
O 10.026238 3.994558 2.350552
