44

Li 0.085744 5.398813 3.085282
Li 2.168408 5.941064 8.767458
Li 3.572663 -0.226516 2.624453
Li 5.970287 -0.099007 5.110052
Co 1.836380 2.206369 7.231958
Co 2.354050 2.426595 3.897650
Co 4.053849 7.422308 4.977461
Co 4.584421 7.771825 1.710947
P 0.694773 7.335657 5.758161
P 1.986981 9.916215 9.137146
P 0.523432 2.175640 2.012393
P 2.630629 4.634728 6.113216
P 3.688408 5.276955 2.806101
P 5.920875 7.796590 6.961119
P 4.449929 0.004929 -0.182204
P 5.656546 2.503891 3.063267
O 0.303131 6.939983 9.664142
O 0.536257 9.572704 8.863552
O 0.315146 3.058470 4.607033
O 6.374416 6.762914 1.959473
O 1.665051 0.185572 6.653880
O 1.241984 5.568429 5.764122
O 2.276667 4.399807 7.456671
O 2.855924 8.344034 9.204114
O 1.990328 8.076485 5.636197
O 0.738647 1.580783 0.738022
O 2.618576 0.252094 4.417016
O 1.905580 1.722307 2.494634
O 2.752155 3.061701 5.535007
O 2.379976 4.575678 3.248905
O 3.844969 5.434852 5.645960
O 3.619802 6.847550 3.354021
O 4.589927 8.107709 6.431867
O 3.889419 9.662201 4.554313
O 4.410404 1.691394 3.100420
O 5.577388 8.548744 8.198632
O 3.535808 1.526221 -0.292121
O 4.982680 4.259639 3.229553
O 4.043488 5.497552 1.455567
O 4.772510 9.728948 2.289406
O 6.337414 2.129058 4.143822
O 6.040401 7.048368 4.206011
O 5.896980 0.378951 0.059587
O 6.297595 3.054865 -0.522797
