19

Mn 0.000077 3.011238 1.102452
Mn 6.388032 0.881630 -3.634777
Mn -0.000026 -0.000046 2.607946
Mn 3.193965 1.946385 0.037896
Mn 3.194131 -1.064874 1.543421
Mn 3.194003 1.946367 -2.570145
Mn 3.193939 -1.064906 4.151506
O 1.212433 4.849545 0.529347
O 0.815388 1.639904 2.998449
O 1.212503 2.650532 -0.275791
O 2.027699 4.203216 -2.449687
O 3.147811 3.061271 1.121554
O 2.027776 0.466846 1.398222
O 4.360327 3.425844 -1.322544
O 3.240272 0.831437 -1.045855
O 4.360423 -0.310479 2.525373
O 5.175606 1.242186 0.351488
O 5.572702 2.252838 -2.922786
O 5.175702 -0.956818 -0.453662
