16

Li 3.194171 0.000000 2.431252
Li 3.194171 3.146648 2.431252
V 1.536824 1.573324 0.538309
V 4.851518 4.719972 4.324196
Si 1.652230 4.719972 0.060408
Si 4.736113 1.573324 4.802096
O 0.259207 4.719972 3.856995
O 1.754865 1.573324 3.575807
O 1.715225 3.390230 1.029557
O 1.715225 6.049714 1.029557
O 2.911072 4.719972 3.652351
O 3.477271 1.573324 1.210153
O 4.673117 0.243582 3.832947
O 4.673117 2.903066 3.832947
O 4.633478 4.719972 1.286698
O 6.129136 1.573324 1.005510
