82

Si 0.239916 5.204134 5.286035
Si 0.255632 5.197452 12.297497
Si 6.111189 11.306284 8.810489
Si 6.109997 11.292315 1.799368
Si 3.913664 7.247999 1.799990
Si 3.896552 7.240558 8.811028
Si 5.870823 6.103093 5.286116
Si 5.853613 6.095443 12.297619
Si 3.657749 2.050997 12.297860
Si 3.656968 2.036404 5.286796
Si 9.511479 8.145687 1.800027
Si 9.526961 8.138921 8.811010
Bi 2.396447 9.554202 8.825288
Bi 2.364801 9.511900 1.785098
Bi 2.215614 7.518627 12.311711
Bi 2.277930 7.522611 5.270943
Bi 0.119387 2.032000 5.271556
Bi 0.149754 1.993201 12.311894
Bi 6.511642 8.895472 10.707474
Bi 3.255880 4.447575 13.801435
Bi 3.256085 4.447669 7.460280
Bi 6.511544 8.895550 0.295681
Bi 6.511183 8.895640 6.636963
Bi 3.255528 4.447898 3.390022
Bi 9.617788 11.349721 1.785362
Bi 9.647900 11.311497 8.825686
Bi 7.489504 5.821010 8.826187
Bi 7.551527 5.825025 1.785842
Bi 7.402506 3.830964 12.312370
Bi 7.371123 3.788760 5.271800
O 0.723548 6.144257 11.082618
O 0.871866 6.038262 4.008550
O 0.911268 6.025543 6.562370
O 0.914325 6.011076 13.593442
O 3.090830 7.954781 3.014633
O 3.298680 8.006681 10.088299
O 3.337984 8.026809 7.534045
O 3.355839 8.022864 0.503610
O 5.091572 10.037837 8.883869
O 4.874892 9.509570 12.301807
O 4.699450 9.398026 5.309705
O 5.155304 9.999872 1.718267
O 1.117213 4.000894 5.213239
O 1.197462 4.026178 12.379032
O 3.070583 5.923863 8.787257
O 1.602164 3.635958 1.795112
O 3.273607 5.873545 1.795237
O 7.341420 11.340076 7.533202
O 7.400845 11.532539 3.014710
O 7.341157 11.374261 10.087607
O 1.630010 3.474050 8.786908
O 7.327267 11.330384 0.503386
O 3.974554 6.037058 5.212701
O 3.957442 5.973493 12.378737
O 0.000938 0.000528 12.390989
O 9.764074 13.340478 8.837618
O -0.000010 0.000435 5.259300
O 9.764953 13.341349 1.706663
O 5.810334 7.369588 1.719055
O 5.793075 7.305916 8.884344
O 2.440283 2.012966 13.594096
O 8.137775 9.869375 5.309856
O 2.426414 1.968709 4.009367
O 2.366510 1.810535 11.082547
O 2.426082 2.002928 6.563900
O 6.493934 7.469428 12.302260
O 8.165319 9.707409 12.302314
O 6.696890 7.419000 5.309859
O 8.569835 9.317510 1.718619
O 8.650377 9.342332 8.883876
O 4.612013 3.343395 12.378905
O 5.067778 3.945696 8.787326
O 4.892346 3.833962 1.795422
O 4.676272 3.305566 5.213515
O 6.412405 5.320148 13.593788
O 6.430231 5.316179 6.563015
O 6.469545 5.336278 4.008916
O 6.676887 5.388525 11.082652
O 8.852240 7.333049 0.503983
O 8.855863 7.317978 7.534520
O 8.895675 7.305193 10.088396
O 9.043846 7.199167 3.014751
