23

Fe 4.709721 6.615047 -1.201640
Fe 0.084680 2.824768 8.918135
Fe 4.740195 6.486944 3.709528
Fe 4.488332 3.777672 4.710489
Fe 1.615195 2.272683 1.274645
Fe 2.926893 1.533420 3.469621
Fe 1.974799 5.325508 6.765564
O 3.968378 5.282830 5.572594
O 3.624156 2.384262 1.652594
O 0.704578 3.900773 7.246414
F 5.285491 7.313771 -2.952672
F 5.553643 5.107618 -2.092267
F 5.106836 7.662979 1.893878
F 5.337082 4.819970 3.140705
F 3.860983 5.666456 0.499265
F 2.405700 6.101157 -1.651317
F 2.603369 6.092889 3.174169
F 2.111749 2.973531 -0.474477
F 4.030257 2.685716 6.253322
F 0.685841 3.651027 2.110871
F 2.531375 3.103337 4.283234
F 0.927245 1.246062 2.971795
F 0.605004 0.993152 8.211247
