14

Li 4.162128 5.445243 6.396688
Mn 6.354208 8.598248 10.131222
Mn 1.444046 2.298325 2.743821
Mn 4.099931 2.797931 5.500081
Mn 4.099931 5.446898 3.918863
Mn 0.836799 3.884812 4.863072
O 2.467929 3.442314 4.066712
O 5.435497 4.869137 5.479272
O 5.528379 7.476748 8.809354
F 2.446618 6.062279 4.918057
F 2.446618 3.389972 6.513208
F 5.543503 4.877510 7.986846
F 5.543503 7.551302 6.390809
F 2.484734 6.061256 7.422003
