14

Li 0.870125 1.196298 1.405813
Li 5.363533 7.374095 8.665562
Mn 0.000000 2.658916 3.409407
Mn 3.116829 1.626281 4.124019
Mn 3.116829 4.285197 2.537949
Te 3.116829 4.285197 5.035687
O 1.703447 2.341997 2.752164
O 1.710566 2.351785 5.005011
O 1.710566 4.737763 3.581751
O 4.507452 3.811128 4.223009
O 1.726206 4.759266 5.848366
O 4.523092 3.832631 6.489623
O 4.523092 6.218609 5.066363
O 4.530211 6.228396 7.319210
