20

Li 2.793199 -0.013486 3.953832
La 0.024848 0.184784 2.067243
La 2.735553 3.063685 2.061004
La 2.850845 2.538430 5.822010
La 5.561549 5.417332 5.815771
Ti 0.000000 2.814544 -0.012325
Ti 0.000000 2.814544 3.944141
Ti 2.793199 -0.013486 -0.002634
O 0.435242 2.893889 5.931617
O 1.198400 4.398468 0.322562
O 1.114905 4.395432 3.614862
O 1.584867 1.609163 0.337664
O 1.560650 1.689517 3.624256
O 2.336829 0.099200 6.031596
O 3.249568 5.502916 1.851418
O 4.025748 3.912599 4.258758
O 4.001531 3.992953 7.545350
O 4.471492 1.206684 4.268152
O 4.387998 1.203648 7.560452
O 5.151156 2.708226 1.951397
