23

Li 5.566008 0.111162 0.129141
Li 1.035965 3.120493 3.641741
Li 2.144926 1.122629 4.443123
Li 0.476580 4.490672 5.369644
Li 5.574251 4.103645 1.000696
Li 4.157170 2.149010 4.395747
Li 6.982166 2.065050 1.604496
Li 2.705911 5.067176 5.342438
Ni 7.899460 -0.003618 -2.015950
Ni 1.590943 2.120871 1.607722
Ni 4.737361 1.088744 2.172092
Ni 3.238508 4.218384 3.146584
Ni 6.400377 3.126172 3.828367
O 3.606528 1.133786 0.696101
O 1.851438 4.413935 1.775471
O 0.357638 2.301342 4.969308
O 2.824049 1.941767 3.115668
O 6.721433 0.059004 1.404298
O 1.332413 5.143834 4.066595
O 5.187152 3.306554 2.358909
O 7.532116 3.079591 0.434668
O 5.949089 0.908165 3.640771
O 4.416655 4.156294 4.595465
