16

Li 0.000031 0.000043 1.268128
Li -0.000021 2.849941 3.340366
Li 5.155468 9.996100 12.285594
Li 5.154777 7.145680 10.212515
Nb -0.000082 -0.000314 -0.000227
Ni 0.000010 2.849665 2.072202
Ni 5.155365 4.296929 9.409270
Ni 5.154798 7.145959 8.944567
O -0.001196 0.001864 0.664094
O 0.003547 2.959305 2.765071
O 5.346496 4.458525 7.740204
O 0.001165 5.697406 6.016436
O 4.962997 6.880042 9.317486
O 10.306647 11.333289 17.661035
O 4.963327 9.833588 12.685359
O 5.347754 7.413181 11.109297
