22

Fe 0.000000 2.382495 2.806317
Fe 2.397415 4.669113 4.090390
Fe 2.610303 2.286618 1.343489
Fe 5.007718 0.000000 2.627562
Fe 7.405133 2.478371 3.911635
Fe 7.618021 0.095876 1.164733
O 1.702394 3.241875 2.856696
O 3.305324 0.859380 2.577184
O 6.710112 3.905609 2.677940
O 8.313042 1.523114 2.398428
F 0.757277 0.938579 3.941135
F 0.764588 1.484809 1.302913
F 1.921912 3.635606 0.044445
F 3.085806 1.253111 5.389434
F 4.243130 3.867303 4.130966
F 4.250441 3.321073 1.492745
F 5.764995 1.443916 3.762379
F 5.772307 0.897686 1.124157
F 6.929630 3.511878 -0.134310
F 8.093524 1.129383 5.210679
F 9.250848 3.280180 3.952211
F 9.258159 3.826410 1.313989
