88

Li 0.598474 6.201690 4.726816
Li 0.598474 8.406975 0.517110
Li 1.347312 1.380762 4.890379
Li 1.347312 3.488793 0.680672
Li 2.302221 8.737881 5.812564
Li 2.302221 5.870784 1.602857
Li 3.612140 6.464237 4.400169
Li 3.612140 8.144428 0.190463
Li 4.536974 1.052077 4.818844
Li 4.536974 3.817468 0.609138
Li 6.435338 5.921642 7.642601
Li 6.435338 8.687024 3.432894
Li 7.360172 1.594682 8.061276
Li 7.360172 3.274873 3.851570
Li 8.670090 3.868326 6.648881
Li 8.670090 1.001229 2.439175
Li 9.625000 6.250318 7.571067
Li 9.625000 8.358348 3.361369
Li 10.373838 1.332135 7.734629
Li 10.373838 3.537420 3.524923
V 3.132441 3.972125 6.089328
V 3.132441 0.897430 1.879621
V 7.839870 8.841681 6.372118
V 7.839870 5.766985 2.162411
C 0.242005 3.780635 6.350113
C 0.242005 1.088920 2.140406
C 2.267571 6.183809 7.116460
C 2.267571 8.424856 2.906754
C 3.179425 1.279037 7.319924
C 3.179425 3.590518 3.110217
C 5.373108 8.364357 5.939488
C 5.373108 6.244309 1.729782
C 5.599204 3.494802 6.521957
C 5.599204 1.374753 2.312251
C 7.792887 6.148593 5.141522
C 7.792887 8.460073 0.931815
C 8.704741 1.314254 5.344985
C 8.704741 3.555301 1.135278
C 10.730307 8.650190 6.111333
C 10.730307 5.958475 1.901626
O 0.092058 8.047028 5.196722
O 0.092058 6.561638 0.987015
O 0.360188 9.733559 6.651313
O 0.360188 4.875106 2.441607
O 1.188334 3.282187 5.565940
O 1.188334 1.587368 1.356234
O 2.150101 7.381233 7.515686
O 2.150101 7.227433 3.305979
O 2.314467 5.126444 7.870527
O 2.314467 9.482222 3.660821
O 2.393281 5.910841 5.833997
O 2.393281 8.697824 1.624291
O 3.025549 0.854714 6.121717
O 3.136413 2.553225 7.602774
O 3.025549 4.014841 1.912011
O 3.136413 2.316331 3.393068
O 3.392376 0.435591 8.284262
O 3.392376 4.433964 4.074556
O 4.267681 7.977617 5.454584
O 4.267681 6.631049 1.244878
O 4.994212 4.593880 6.944856
O 4.994212 0.275675 2.735150
O 4.924780 2.846294 5.613865
O 4.924780 2.023261 1.404159
O 6.047532 7.715849 6.847580
O 6.047532 6.892816 2.637874
O 5.978100 9.463435 5.516589
O 5.978100 5.145230 1.306882
O 6.704631 3.108062 7.006861
O 6.704631 1.761493 2.797155
O 7.579936 5.305147 4.177183
O 7.579936 9.303519 -0.032523
O 7.835899 7.422780 4.858671
O 7.946763 5.724269 6.339728
O 7.835899 7.185886 0.648965
O 7.946763 8.884396 2.130022
O 8.579031 1.041286 6.627448
O 8.579031 3.828269 2.417742
O 8.657845 0.256889 4.590918
O 8.657845 4.612667 0.381212
O 8.822211 2.511678 4.945760
O 8.822211 2.357878 0.736053
O 9.783978 8.151743 6.895505
O 9.783978 6.456923 2.685799
O 10.612124 4.864004 5.810132
O 10.612124 0.005551 1.600426
O 10.880254 3.177472 7.264723
O 10.880254 1.692083 3.055017
