21

Li 1.400510 4.605900 4.115671
Li 4.367796 3.627954 -0.463576
Mg 0.000000 0.000000 0.000000
Cu 0.944468 6.253124 1.736223
Cu 4.823838 1.980730 1.915873
Si 1.288322 2.960131 1.090534
Si 2.366165 1.693881 3.587795
Si 3.402141 6.539973 0.064300
Si 4.479984 5.273723 2.561562
O 0.000577 1.860544 0.967903
O 5.767730 6.373310 2.684193
O 1.149479 0.541191 3.597757
O 0.783728 4.446820 0.837644
O 2.075708 2.846334 2.499272
O 1.869156 7.024795 0.237514
O 2.369407 2.635978 -0.142779
O 3.398900 5.597876 3.794875
O 3.899150 1.209059 3.414582
O 3.692599 5.387520 1.152823
O 4.984578 3.787034 2.814447
O 4.618827 7.692664 0.054339
