36

Li 0.545881 4.311443 4.956667
Li 2.269024 7.591379 2.205123
Li 1.718868 0.369738 8.917495
Li 2.287781 1.586950 4.497243
Li 2.807904 3.087587 0.330711
Li 2.826661 8.799397 -2.110115
Co 1.132374 8.198710 -0.657644
Ni 0.559404 7.028993 3.757958
Ni 0.564118 1.204922 6.074457
Ni 1.132374 2.340590 1.708829
Ni 2.828425 5.847205 -0.939672
Ni 1.700631 3.476259 7.799706
Ni 2.269813 4.702000 3.371154
Ni 2.825874 11.688776 -3.276145
Ni 1.705342 9.368427 5.383257
Ni 2.267260 10.543571 1.034679
O 1.389480 1.463062 0.278445
O 1.454948 10.171260 6.795602
O 0.284886 4.699617 6.607571
O 0.280325 10.673410 4.220272
O 0.299502 8.089876 5.124511
O 0.881084 9.102083 0.734596
O 1.383665 7.295337 -2.049883
O 0.300436 2.133197 7.526913
O 0.812566 0.343640 4.697324
O 0.809801 6.226159 2.345614
O 0.875269 3.218119 3.139214
O 1.452182 4.337541 9.176838
O 1.964313 2.547984 6.347250
O 2.550900 1.083952 2.895212
O 1.965247 8.307544 4.016706
O 1.984424 5.724010 4.920944
O 1.979863 11.697803 2.533646
O 2.546093 6.944766 0.536041
O 2.549592 9.446010 -0.441034
O 2.544785 3.590585 1.932742
