20

Li 3.166483 3.265166 4.403530
Li 4.044131 0.953128 0.360750
V 0.654125 1.107582 1.519853
V 6.556489 3.419619 3.244427
C 0.850067 1.016390 4.503853
C 2.621765 3.389276 1.130954
C 4.588849 1.077238 3.633326
C 6.360548 3.328428 0.260427
O 0.486745 0.354024 5.543165
O 1.155818 2.253908 4.548531
O 0.778343 0.302105 3.442411
O 1.922660 2.650141 1.906236
O 2.460889 0.074674 1.214889
O 3.468450 2.913144 0.326035
O 3.742164 0.601107 4.438245
O 4.749725 2.386712 3.549391
O 5.287954 0.338103 2.858044
O 6.432272 2.614142 1.321869
O 6.054796 4.565946 0.215749
O 6.723869 2.666061 -0.778885
