14

Li 3.322100 2.275998 1.216228
Li 1.284129 3.971634 7.499243
Fe 4.426886 2.281890 4.438633
Fe 0.179344 3.965741 4.276838
P 1.627717 1.395544 5.950053
P 2.978512 4.852087 2.765418
O 0.785348 2.122398 4.697342
O 1.460281 5.020622 3.048374
O 2.921381 4.068943 1.532734
O 0.908814 5.126066 5.883569
O 3.697416 1.121565 2.831902
O 1.684848 2.178688 7.182737
O 3.145949 1.227010 5.667097
O 3.820881 4.125233 4.018130
