24

K 1.346248 2.743523 7.291679
K 4.096090 5.909243 2.053379
Li 1.227518 5.849319 8.443526
Li 4.214837 2.683573 0.901577
Mn 4.216807 4.916316 5.917878
Mn 1.225575 1.750530 3.426985
P 3.882472 1.720771 5.144073
P 1.559898 4.886545 4.200898
C 3.939715 4.675995 8.542268
C 1.502596 1.510283 0.802811
O 1.404840 1.163115 9.407419
O 5.037928 4.822996 7.760014
O 2.827249 4.882753 7.963608
O 4.250190 0.523561 6.055420
O 4.183701 2.947452 6.052550
O 0.790377 4.884030 5.543989
O 2.334248 1.705225 4.955762
O 3.108129 4.870973 4.389208
O 4.652032 1.718240 3.801017
O 1.258642 6.113272 3.292493
O 1.192159 3.689415 3.289542
O 2.615046 1.717003 1.381516
O 0.404378 1.657323 1.584922
O 4.037574 4.328856 -0.062436
