56

Li 8.438481 8.436590 8.450519
Li 1.056357 7.398854 3.174743
Li 3.171202 1.056930 7.403017
Li 5.282699 5.284580 5.288142
Li 7.397544 3.171203 1.060107
Li 0.015420 4.208939 4.240640
Ti 1.099371 1.028427 5.330984
Ti 0.979444 5.304797 1.144119
Ti 1.048681 3.094674 7.442983
Ti 3.200681 3.182305 5.325705
Ti 3.148266 5.330594 3.223696
Ti 3.081599 7.449425 1.053399
Ti 5.305634 1.102943 1.011154
Ti 5.372302 3.221774 3.181451
Ti 5.253220 7.409955 7.365454
Ti 7.474457 1.077146 3.090731
Ti 7.354530 5.256077 7.360175
Ti 7.405220 7.322325 5.248176
Co 2.129191 2.130787 2.122622
Co 2.102595 6.334162 6.363372
Co 4.217710 4.230779 0.015534
Co 4.236190 0.003128 4.219316
Co 6.351306 2.106511 6.327787
Co 6.324710 6.358437 2.112228
O 1.081440 3.302725 0.907136
O 1.179438 3.047629 5.412862
O 1.216575 7.248349 1.050189
O 0.928999 7.545308 5.307146
O 1.200285 5.271221 3.003921
O 0.910358 1.077239 3.295756
O 1.046601 1.216523 7.265162
O 0.941325 5.178830 7.507234
O 3.293124 0.907998 1.082572
O 3.018880 1.171068 5.258960
O 3.264896 3.271398 3.277114
O 3.047969 3.194726 7.260599
O 3.070677 5.389409 1.156346
O 3.202236 7.259290 3.048440
O 3.138646 5.167314 5.154644
O 3.317615 7.374519 7.525986
O 5.383224 1.161758 3.078504
O 5.251665 3.031640 1.186410
O 5.136286 3.146869 5.165173
O 5.160777 5.135649 3.152278
O 5.315255 0.939663 7.536515
O 5.435021 5.398718 7.432200
O 5.189004 7.499049 0.957736
O 5.405931 7.422376 5.430560
O 7.253616 1.043570 1.230929
O 7.512576 0.951179 5.183926
O 7.237325 3.020699 3.184661
O 7.543542 5.304890 0.939094
O 7.407299 5.444174 5.425997
O 7.524893 3.317657 7.384013
O 7.372461 7.530376 3.327714
O 7.274463 7.275279 7.278297
