12

Li 4.017605 3.467456 1.617734
Li 1.759041 2.227888 2.456375
Mn 4.330855 1.362010 -0.720828
Mn 1.445790 4.333335 4.794936
Al 4.720871 5.035172 3.810792
Al 1.055774 0.660172 0.263317
O 4.047442 3.667423 0.249221
O 4.541847 5.020326 2.584800
O 4.540917 1.168894 1.778842
O 1.235729 4.526450 2.295267
O 1.234798 0.675018 1.489309
O 1.729204 2.027922 3.824887
