38

K 2.655402 4.342723 5.144015
K 5.085190 6.397191 -0.938123
K 7.766740 0.807893 2.183404
Li 3.120603 2.323812 1.285744
Li 5.399243 4.020641 2.224584
Nb 0.215458 2.829035 0.326785
Nb 1.323147 -0.093000 2.383763
Nb 5.576829 6.820661 3.016895
Nb 2.956769 0.611524 -0.858374
Nb 7.201803 3.781082 4.473610
Nb 8.317305 5.107717 1.201397
P 2.404338 5.385081 1.648845
P 4.259578 1.365945 3.998938
P 6.096942 2.751572 -0.390083
O 0.205302 8.034979 1.512648
O 8.519054 5.077024 -2.820907
O 1.169401 5.559725 2.626582
O 0.593361 1.591898 1.854834
O 1.304692 7.994544 3.950884
O 2.528682 6.572568 0.614706
O 2.122560 4.047677 1.048429
O 3.850176 5.321877 2.318596
O 1.774741 2.215128 -0.632136
O 3.565832 1.645722 5.282947
O 3.096968 1.357652 3.007577
O 2.692627 -0.038465 0.862412
O 4.256962 -0.774158 6.684748
O 5.815223 5.230994 4.088274
O 5.421276 2.507625 3.571113
O 4.972928 0.000549 4.089337
O 6.740351 6.170614 1.575532
O 4.656865 1.949300 0.013244
O 6.371845 3.819554 0.555608
O 5.986086 3.471363 -1.718796
O 7.923017 3.848134 2.773739
O 7.346015 1.790436 -0.359916
O 7.217693 -0.381361 5.891399
O 8.302190 2.244454 -2.938213
