24

Mn 2.724083 1.474121 4.540782
Mn 7.138493 4.422362 0.183319
Cr 2.240472 4.422362 2.238134
Cr 7.622105 1.474121 2.485968
P 0.942566 1.474121 1.971452
P 4.001504 4.422362 4.409311
P 5.861073 1.474121 0.314791
P 8.920010 4.422362 2.752649
O 0.544542 4.422362 3.211798
O 1.117982 1.474121 3.513775
O 1.683354 0.261155 1.306933
O 1.683354 2.687086 1.306933
O 3.246898 5.603580 3.660536
O 3.246898 3.241143 3.660536
O 3.836236 4.422362 1.071246
O 4.380108 1.474121 0.693426
O 5.482468 4.422362 4.030675
O 6.026340 1.474121 3.652855
O 6.615678 0.292902 1.063565
O 6.615678 2.655339 1.063565
O 8.179222 3.209396 3.417169
O 8.179222 5.635327 3.417169
O 8.744594 4.422362 1.210326
O 9.318034 1.474121 1.512303
