22

Li 1.713666 2.863306 2.461602
Li 0.827679 2.541210 7.640458
Li 4.303274 -0.675878 2.479476
Li 3.417286 -0.997974 7.658332
Mn 0.839373 3.291711 5.048053
Mn 1.729352 2.075387 -0.071616
Mn 2.565476 0.932666 5.059967
Mn 3.401601 -0.210055 -0.060074
Mn 4.291580 -1.426379 5.071881
Ni 0.000000 0.000000 0.000000
O 0.024439 2.840440 1.016816
O 1.833479 3.498108 9.080528
O 0.802563 1.902141 3.963667
O 2.466936 2.507216 6.143420
O 1.803884 0.655793 0.959642
O 0.893961 0.324995 6.067372
O 3.327069 1.209539 9.160292
O 4.236992 1.540337 4.052563
O 2.664016 -0.641884 3.976515
O 4.328390 -0.036809 6.156268
O 5.106514 -0.975108 9.103119
O 3.297474 -1.632776 1.039407
