34

Sn 1.222634 3.023754 0.698983
Sn 2.983737 -1.208216 3.891613
Sn 5.681278 5.463185 5.433807
Sn 7.442382 1.231216 8.626437
S 0.455520 1.748622 2.928452
S 4.797958 4.212116 2.645205
S 2.328359 5.446916 6.282757
S 6.336656 -1.191946 3.042656
S 3.867058 0.042853 6.680215
S 8.209487 2.506352 6.396964
O 1.991004 6.666615 0.054476
O 1.218206 7.053014 2.405252
O 0.342667 3.187083 3.447862
O 1.174621 1.341652 1.890810
O 4.522089 5.401072 1.960260
O 1.394262 5.961385 5.207890
O 3.678290 3.389916 2.115957
O 1.445177 0.813170 3.838994
O 4.431549 4.835944 3.841636
O 1.940669 4.258727 6.534191
O 6.498995 3.409017 2.709781
O 4.129010 4.987214 6.251032
O 4.536005 -0.732244 3.074388
O 2.166020 0.845952 6.615639
O 6.724346 -0.003757 2.791229
O 4.233466 -0.580975 5.483784
O 7.219838 3.441799 5.486426
O 4.986725 0.865054 7.209463
O 7.270754 -1.706415 4.117530
O 4.142926 -1.146102 7.365160
O 7.490394 2.913318 7.434610
O 8.322348 1.067886 5.877558
O 7.446809 -2.798044 6.920168
O 6.674011 -2.411645 9.270944
