34

Li 4.828715 6.609735 9.387400
Li 2.332785 5.355514 9.379867
Li 3.981596 5.479894 7.323266
Li 4.809353 4.478705 9.453660
Li 1.132941 3.776404 4.463996
Li 0.008453 5.173926 0.188308
Li 1.988161 2.767433 2.424813
Li 3.620364 2.884485 4.580642
Li 5.943698 3.045552 5.252851
Li 1.173463 1.652300 4.559911
Ti 3.953208 5.415170 4.759777
Ti 1.991888 2.677597 9.672773
Fe 4.934067 6.801209 2.226005
Fe 1.998089 5.325266 2.181812
Fe 1.016005 3.912159 7.117279
Ni 4.953143 4.265756 2.239438
Ni 3.954456 2.872527 7.169240
Ni 1.016561 1.386858 7.140324
O 4.994125 6.791007 5.874748
O 3.086709 6.662436 3.468552
O 0.035677 5.140413 8.132043
O 5.842922 5.630035 3.478272
O 2.042429 5.318190 5.820706
O 3.984763 5.500308 1.051494
O 5.941912 8.165413 3.268586
O 3.081183 4.188385 3.545427
O 2.904345 4.026797 8.391454
O 4.946720 4.315587 5.858454
O 0.961850 3.875475 0.908191
O 0.125186 2.612716 8.354913
O 1.970107 2.769816 5.977486
O 3.928887 2.852424 0.988860
O 2.925738 1.596365 8.452642
O 0.997133 1.434006 0.880987
