42

Li 0.000000 8.522299 4.267743
Li 2.765660 7.106378 1.333244
Li 2.765660 7.106378 4.190920
La 2.122777 11.966188 5.521790
La 0.663598 3.673309 2.774045
La 4.867723 10.539446 2.774045
La 2.765660 -1.415921 5.527877
La 3.408544 2.246568 5.521790
Ti 1.005727 5.648941 0.001671
Ti 0.315169 1.791035 0.000836
Ti 2.454081 13.850514 2.765087
Ti 3.077240 0.362242 2.765087
Ti 5.216152 12.421721 0.000836
Ti 4.525594 8.563815 0.001671
Nb 1.737770 9.967272 2.750594
Nb 3.793551 4.245484 2.750594
O 0.426382 11.035693 4.153235
O 0.432372 11.096578 1.379389
O 1.108499 14.417621 1.328424
O 1.107227 14.416892 4.202789
O 1.351230 7.219996 5.481875
O 2.136854 12.035306 2.776729
O 0.647684 3.571502 5.519178
O 0.000000 0.000000 0.001035
O 1.517468 8.250202 2.835441
O 3.757509 13.075653 4.204914
O 3.759014 13.056577 1.332281
O 2.311373 4.556443 4.143109
O 2.320660 4.602874 1.376899
O 3.210661 9.609882 1.376899
O 3.219948 9.656312 4.143109
O 1.772307 1.156179 1.332281
O 1.773812 1.137103 4.204914
O 4.013853 5.962554 2.835441
O 4.883636 10.641254 5.519178
O 3.394467 2.177450 2.776729
O 2.765660 -1.415921 2.764716
O 4.180091 6.992759 5.481875
O 4.424094 -0.204136 4.202789
O 4.422822 -0.204865 1.328424
O 5.098949 3.116178 1.379389
O 5.104939 3.177062 4.153235
