17

Li 4.119433 13.467083 13.820357
Nb 5.307558 5.730856 5.726559
Te 2.637935 7.400520 8.024219
Te 2.696783 2.901904 4.998392
Te 0.000419 4.509607 7.268165
O 2.008733 4.974484 4.563060
O 1.319419 2.384877 4.753054
O 0.751700 3.663414 5.844800
O 4.709183 6.749094 7.239145
O 2.016530 9.470562 7.645212
O 4.022445 7.689891 8.170901
O 1.307164 7.111957 7.887398
O 3.389957 5.401323 8.425954
O 0.643936 8.026921 8.838406
O 4.564165 11.194615 10.193202
O 3.961048 12.248545 11.234602
O 3.363943 9.884040 11.548722
