14

Li 4.469413 3.066777 0.886913
Li 1.489804 5.158477 2.456406
V 2.979609 4.112627 -0.752321
V 0.000000 2.515234 3.213880
Co 2.979609 1.597394 -1.542220
Co 0.000000 2.515234 0.789899
O 3.165572 5.372541 3.396905
O 5.773254 6.770541 -0.679356
O 5.788372 4.496746 -1.338404
O 3.150453 5.309337 0.726279
O 2.808764 2.915918 2.617040
O 0.170845 3.728509 4.681723
O 0.185963 1.454713 4.022675
O 2.793645 2.852714 -0.053586
