32

Li 1.096480 3.601975 0.434928
Li 2.105146 2.358164 5.267205
Li 2.025597 2.325072 2.770307
Li 4.001112 2.176956 0.483466
Li 5.013577 0.911810 5.515007
Li 1.065837 1.090498 0.483071
Li 2.131094 -0.146653 5.485473
Li 4.012216 -0.268968 7.810826
Li 3.950508 -0.367462 0.399664
Li 5.034866 -1.616147 5.554063
Fe 4.950172 0.873487 2.899875
Fe 1.085832 1.181529 7.790792
Fe 4.003559 2.247177 7.807623
Fe 4.949663 -1.634595 2.958475
Fe 1.085955 3.694520 7.730881
Fe 2.028664 -0.192546 2.886566
O 0.143797 -0.010708 6.608058
O 1.037787 3.735487 3.837142
O 2.996602 3.492649 6.683114
O 2.028957 2.355373 8.991629
O 4.068251 2.187470 3.946279
O 0.227683 2.537852 6.625608
O 3.067493 1.134154 6.708696
O 5.013278 0.986517 8.895471
O 1.068904 1.067058 3.918219
O 3.029791 0.903127 1.774949
O 5.826204 -0.432404 1.823770
O 0.054478 4.966061 1.554419
O 4.013896 -0.316031 4.127388
O 1.956069 -0.194603 8.915706
O 2.998130 -1.440511 1.820853
O 4.941632 -1.681590 9.001480
