36

Fe 0.000000 0.000000 0.000000
Fe 0.512278 5.074133 6.360223
Fe 4.725921 3.584882 3.876168
Fe 4.213643 5.941815 6.936618
Fe 3.701365 8.298747 9.997068
Fe 7.915008 6.809496 7.513013
P 2.106821 2.970907 5.566901
P 2.106821 8.186519 5.139861
P 2.106821 5.186360 9.118838
P 6.320464 6.697269 4.754399
P 6.320464 3.697110 8.733375
P 6.320464 8.912722 8.306335
O 0.545212 1.083871 2.819750
O 0.545212 4.039153 2.244081
O 0.545212 2.691478 4.611561
O 1.819165 1.669709 6.471233
O 3.668431 3.250337 5.124454
O 2.394478 4.272105 6.182957
O 1.819165 7.933443 3.866883
O 2.394478 6.834545 5.898436
O 4.758855 7.025685 3.993867
O 2.394478 5.439436 7.878593
O 6.608121 5.345294 4.520138
O 4.758855 2.549903 8.321924
O 3.668431 9.333726 5.551312
O 1.819165 6.538335 9.353098
O 6.032807 6.444193 5.994643
O 3.668431 4.857944 9.879370
O 6.032807 5.049084 7.974800
O 6.608121 3.950186 10.006353
O 6.032807 7.611524 7.690280
O 4.758855 8.633292 8.748782
O 6.608121 10.213920 7.402004
O 7.882074 9.192151 9.261676
O 7.882074 7.844476 11.629156
O 7.882074 10.799758 11.053486
