18

Li 1.201577 4.493380 -0.091466
Li 3.069116 2.921796 -1.447071
Li 3.900106 -0.218968 2.702024
Fe 0.553368 3.380159 2.641534
Fe 4.519725 0.691022 -0.125249
Ni 0.021392 2.460363 5.532644
Ni 3.515995 3.769433 2.637122
Ni 1.505671 0.250656 -0.086887
O 0.206399 0.400410 5.695743
O 0.476600 1.391551 2.680841
O 1.690946 3.342172 4.028920
O 2.226993 3.970511 1.449556
O 1.127343 2.105031 -0.144127
O 4.086401 1.858559 2.607308
O 2.775850 -0.008378 1.102559
O 3.448158 0.875045 -1.441365
O 4.531581 2.652704 -0.236184
O 4.800119 3.617896 -3.081202
