30

Fe 2.533395 2.904992 11.075799
Fe 0.525748 2.904992 6.938650
Fe 4.508378 1.452496 3.416041
Fe 3.486353 0.000000 1.291345
Co 1.489955 0.000000 20.697629
Co 0.501011 1.452496 18.662117
Co 4.536005 2.904992 15.196768
Co 3.542769 1.452496 13.157867
Co 1.516190 1.452496 9.009566
Co 2.492639 1.452496 22.710574
O 3.012497 0.000000 21.483084
O 0.971936 1.452496 21.940207
O 5.004282 2.904992 18.476175
O 2.012652 1.452496 19.463855
O 1.026900 0.000000 17.426449
O 4.017690 1.452496 16.443004
O 3.030661 2.904992 14.387929
O 4.096487 0.000000 11.925889
O 0.016148 1.452496 15.390216
O 2.013662 1.452496 12.413230
O 3.037356 1.452496 9.738965
O 0.965101 2.904992 10.227162
O 2.063178 0.000000 7.785846
O -0.000880 1.452496 8.289206
O 3.977704 2.904992 4.772588
O 1.126705 1.452496 5.676217
O 0.010766 0.000000 3.467853
O 2.865569 1.452496 2.555786
O 4.031341 1.452496 -0.040562
O 1.950934 2.904992 0.441180
