55

Li 2.617698 3.225137 3.097243
Li 4.108360 -0.115760 -0.090225
Li 4.483745 0.346729 3.152687
Li 1.124172 1.385042 9.711614
Li 5.044642 1.037782 7.998199
Li 1.491756 1.837930 12.887120
Li 2.986388 3.679387 6.282323
Li 5.607631 1.731418 12.861803
Ti 1.302551 4.204288 -0.198287
Ti 2.051188 2.527173 -1.796768
Ti 4.304177 2.703475 -0.198287
Ti 1.302551 1.604803 1.534702
Ti 0.564304 0.695251 4.874950
Ti 5.777729 1.940983 4.773550
Ti 2.849978 0.869351 6.463888
Ti 1.261455 4.194983 9.529568
Ti 4.310795 2.670313 9.529568
Ti 5.777729 -0.594524 6.463888
Ti 4.310795 0.133641 11.220683
Ti 2.797362 3.446492 14.470994
Ti 2.797362 0.874551 16.185621
Ti 3.547284 -0.807034 14.579464
Ti 5.805971 -0.629754 16.185621
O 0.395581 2.814220 -0.108307
O 3.082389 1.470816 -0.108307
O 2.410234 2.969526 1.304957
O 0.211750 0.260876 1.829249
O 5.512741 1.614504 1.307357
O 0.777764 3.727163 6.231481
O 2.224455 0.410908 3.205850
O 1.574635 1.940020 4.946762
O 3.082389 -1.379808 1.792109
O 0.135011 2.936149 9.760766
O 0.917301 1.130166 7.924477
O 1.574635 -0.356339 6.477668
O 4.689033 0.599654 4.926138
O 5.512741 -1.233236 3.205850
O 3.975035 2.128527 6.231481
O 2.536098 3.124602 11.042188
O 3.975035 -0.280023 7.837181
O 0.135011 0.166345 11.607301
O 4.901446 -2.019745 6.477668
O 3.333310 1.336999 9.760766
O 5.399850 1.475412 11.066763
O 2.536098 0.241800 12.964056
O 3.192913 -1.243648 11.518062
O 1.697809 2.091792 14.667147
O 1.046429 3.563070 16.095345
O 3.672000 2.250284 16.095345
O 5.185763 -1.083032 12.964056
O 1.046429 1.289248 17.611226
O 1.896538 -0.524834 16.235461
O 4.570833 0.454031 14.691452
O 4.570833 -1.861982 16.235461
O 3.903736 -0.367862 17.658823
