15

Li 10.461503 11.617060 17.342312
Li 5.230746 10.112561 12.441370
Li 5.230767 7.243233 10.353479
Ti 0.000052 0.000044 2.553428
V 0.000115 2.869574 4.641484
V 5.230579 10.112392 11.164491
V 5.230746 7.243158 11.630092
O 0.000481 0.000752 0.659344
O 10.461450 11.731951 16.779991
O 5.439181 10.286638 12.074082
O 10.461022 14.485659 20.047563
O 5.023838 6.957082 9.450060
O 0.000052 2.754471 3.926927
O 5.022374 4.199817 8.632888
O 5.437696 7.529373 11.256895
