30

Li 5.397689 2.013250 1.999093
Li 0.107676 0.104899 5.368632
Li 0.002059 0.014347 9.616485
Li 0.150967 4.561533 12.551118
Mn 1.742261 2.310952 0.158291
Mn 1.841400 2.168791 4.516822
Mn 1.884750 2.294409 11.853352
Mn 1.765769 2.177145 7.502672
Mn 3.581552 -0.204140 2.564799
Mn 3.639095 -0.202808 9.921589
Mn 3.554949 -0.287649 14.055632
Mn 3.550907 -0.102753 6.728376
O 1.802822 3.543099 13.315530
O 1.797494 0.928127 6.037028
F 0.010509 3.260807 10.904710
F 0.181133 3.170680 6.044123
F 0.180321 1.481707 13.419812
F 5.423845 -1.215989 3.404078
F 1.691850 0.674113 10.857043
F 3.572661 2.885027 5.882336
F 1.962249 0.632002 1.132229
F 1.657390 3.824032 3.463795
F 3.575145 1.382692 13.217494
F 1.975957 -0.853765 8.534307
F 3.699836 1.219200 8.432030
F 3.799492 1.422327 3.409367
F 5.165955 0.440392 0.989285
F 3.690345 -1.645634 1.150605
F 3.834120 -1.859162 10.813394
F 5.202337 -1.017910 8.372330
