14

Li 0.188294 5.311624 1.556430
Li 0.790706 1.636267 2.255441
Li 1.398800 3.539243 -0.504458
V 3.800627 3.308552 2.227104
V 3.727810 5.929170 0.459087
V 3.737220 5.931918 -1.908601
O 2.595297 5.229015 1.776033
O 5.037788 6.738016 -0.744197
O 2.375367 5.320435 -0.740620
F 2.289307 2.435049 1.057258
F 2.293535 2.442508 3.436603
F 5.308553 4.183477 3.403375
F 5.291053 4.169493 0.998110
F 5.266113 6.635562 1.766574
