68

Li 5.874297 4.223492 9.651956
Li 7.405414 3.406805 4.458617
Li 2.146861 6.112133 5.208297
Li 2.627452 7.733372 0.200749
Cu 7.448617 1.878352 11.403928
Cu 6.991093 7.104885 4.804212
Cu 2.588004 2.403907 4.872215
Cu 2.037332 7.387711 -1.989513
P 8.761605 7.194630 9.525194
P 9.002092 3.942878 9.366910
P 8.754219 8.464882 6.898240
P 7.071377 3.800309 7.104446
P 7.252415 0.714762 6.634935
P 3.850098 2.199199 9.264388
P 3.845337 8.681700 5.571785
P 3.981200 4.117079 7.011325
P 5.589890 5.340317 2.665732
P 5.760036 0.820543 4.093294
P 5.753311 7.311801 0.421461
P 2.315446 8.779046 3.011146
P 2.508746 5.648213 2.570656
P 0.798372 1.036355 2.752511
P 0.577523 5.545603 0.318070
P 0.856624 2.274558 0.120088
O 9.401067 5.551502 9.605163
O 9.273290 7.790211 8.327662
O 7.808078 3.610021 10.085159
O 8.258551 4.332489 7.955896
O 8.607283 7.217262 6.205261
O 7.667876 0.094983 10.464054
O 7.054891 7.192458 9.267853
O 8.890542 0.241665 6.598651
O 8.730511 6.211457 3.872493
O 9.245998 7.852814 0.950305
O 7.220947 2.104206 7.382746
O 7.126304 4.290825 5.837793
O 5.107996 2.538041 10.009054
O 5.627613 4.342818 7.662566
O 6.518051 9.226517 3.601574
O 6.681616 1.348161 5.294658
O 5.251589 7.808697 5.745641
O 6.453171 3.912604 2.929626
O 6.777313 0.740560 3.172654
O 5.419954 6.412774 3.530214
O 3.995387 0.752176 8.692197
O 6.216563 6.026454 1.437736
O 3.327416 3.390940 8.183565
O 5.676907 8.725321 1.030497
O 4.192067 3.102243 6.106399
O 2.804352 8.747091 6.477605
O 3.131866 5.558397 6.736630
O 4.323801 1.633035 3.920550
O 2.912722 8.179682 4.345699
O 3.045672 0.236581 5.991022
O 3.956562 5.081500 2.075147
O 4.444260 7.055768 -0.312543
O 2.397703 5.233912 3.842269
O 2.374052 7.364989 2.236461
O 0.351568 1.613127 8.707806
O 0.798305 3.177696 5.838935
O 0.683958 9.239090 3.040805
O 2.552456 2.240908 0.410739
O 1.877752 9.376223 -0.772092
O 0.978998 2.271724 3.446645
O 1.323458 5.111116 1.724137
O 1.746487 6.084882 -0.349100
O 0.344038 1.678077 1.327926
O 0.284618 3.935086 0.011221
