28

Li 0.002227 0.007698 0.000893
Li 0.002237 3.056899 0.000900
Li 5.253970 0.007609 2.386439
Li 5.253991 3.056847 2.386427
Mn 2.295655 4.596866 2.280331
Mn 7.547766 4.596764 0.106935
Fe 2.957391 1.532296 4.660429
Fe 8.209292 1.532176 2.501687
P 0.988738 1.532292 1.985045
P 4.266545 4.596839 4.386876
P 6.240545 1.532215 0.402356
P 9.518551 4.596774 2.775133
O 0.442911 4.596897 3.390399
O 1.021026 1.532291 3.522346
O 1.722057 0.300565 1.338530
O 1.722015 2.764048 1.338599
O 3.521883 3.354780 3.768346
O 3.521862 5.838839 3.768306
O 4.254151 4.596839 1.147744
O 4.792341 1.532246 0.982649
O 5.694823 4.596826 3.771699
O 6.272833 1.532208 3.639745
O 6.973926 0.300500 1.048840
O 6.973895 2.763959 1.048781
O 8.773826 3.354685 3.393599
O 8.773805 5.838798 3.393625
O 9.506157 4.596768 1.239431
O 10.044211 1.532176 1.404611
