40

Li 0.648518 2.978917 6.783015
Li 3.188082 7.700374 4.474748
Li 7.174615 4.665755 6.754273
Li 2.482989 8.792923 9.043542
Li 6.469523 5.758304 11.323066
Li 9.009087 10.479760 9.014800
Sb 1.515172 2.111519 2.478503
Sb 8.142433 11.347159 13.319311
Sb 3.368843 4.694764 5.510720
Sb 6.288762 8.763914 10.287095
P 0.453801 6.114506 5.688827
P 4.321962 2.862224 8.074581
P 7.162765 7.660605 5.765518
P 2.494839 5.798073 10.032296
P 5.335643 10.596454 7.723234
P 9.203803 7.344172 10.108987
O 1.248786 2.312178 5.541509
O 1.948663 5.678140 3.738606
O 5.574176 4.233674 5.068423
O 1.361674 4.955246 6.080257
O 1.679950 7.529737 5.303368
O 9.562477 11.863685 12.199782
O 2.545175 2.839912 8.076068
O 4.957500 3.970432 7.146127
O 5.103600 6.992909 5.458876
O 1.884836 4.288267 2.329634
O 1.627886 6.750180 9.130898
O 3.918283 2.336439 3.720627
O 5.739321 11.122239 12.077188
O 8.029719 6.708498 6.666917
O 7.772769 9.170411 13.468180
O 4.554005 6.465769 10.338939
O 4.700105 9.488246 8.651687
O 7.112430 10.618766 7.721747
O 0.095127 1.594993 3.598033
O 7.977655 5.928941 10.494447
O 8.295931 8.503432 9.717558
O 4.083428 9.225004 10.729391
O 7.708941 7.780538 12.059208
O 8.408818 11.146500 10.256305
