12

V 0.038754 2.452227 0.883822
V 0.034996 4.841966 -3.005392
F 0.582919 1.734564 1.601196
F 1.864292 3.967685 -1.311532
F 5.972129 -0.822695 -5.474886
F 0.581543 0.751629 -0.215037
F 3.866203 2.120936 -2.462896
F 7.124404 1.424085 -8.256737
F 1.825399 3.614546 -3.480512
F 5.987856 -0.586523 -3.203560
F 3.881977 0.955399 -4.176312
F 7.157375 2.256465 -6.375486
