34

Mn 1.252193 1.723658 2.025484
Mn 3.095859 4.261488 5.007707
Mn 5.590313 7.695135 9.042613
V 7.465412 10.276231 12.075679
P 0.303606 5.694894 5.285821
P 4.031008 2.378802 7.405503
P 6.508604 6.852128 4.848126
P 2.215597 5.084836 9.211402
P 4.608523 9.556348 6.651696
P 8.386168 6.295966 8.740309
O 1.235456 2.652171 4.905001
O 2.354349 5.036182 3.533966
O 0.519502 7.110617 4.564334
O 4.465483 3.399850 4.590866
O 1.913823 5.236140 5.542351
O 0.023325 5.771766 6.441525
O 2.422683 1.716313 7.845031
O 3.855129 3.655669 6.559237
O 4.973110 5.894772 5.274238
O 1.970985 3.686798 8.797530
O 0.635589 5.614650 8.650482
O 3.115937 8.933477 5.727173
O 5.566528 2.948235 8.341700
O 8.039750 6.289839 5.354466
O 6.772375 8.296758 5.213300
O 3.708322 6.079858 8.779782
O 4.855149 8.312705 7.499660
O 6.208888 10.186375 6.159225
O 8.577056 6.188359 7.577469
O 6.771255 6.715876 8.525248
O 4.223501 8.574759 9.439950
O 8.137025 4.821197 9.423625
O 6.298411 6.905255 10.515096
O 7.470125 9.286248 9.147980
