15

Li 0.643239 1.615082 2.037134
Li 3.011137 1.940377 1.597056
Li 1.255957 2.870328 3.962011
Li 1.595877 -0.734763 2.234529
Li 3.932177 3.312025 3.811878
Li 4.272097 -0.293066 2.084396
Li 2.516918 0.636885 4.449351
Li 4.884815 0.962179 4.009274
Mn 0.000000 0.000000 0.000000
O 2.148887 0.218364 1.166251
O 0.431542 1.114972 3.411627
O 5.096512 1.462290 2.634780
O 3.379167 2.358897 4.880156
F 1.357452 3.255266 2.392629
F 4.170602 -0.678005 3.653778
