42

Li 1.894579 3.618545 2.903549
Li 2.493211 7.804378 -1.111377
Li 3.609085 5.882731 6.782245
Fe -0.013530 8.749574 -4.533257
Fe 1.322463 6.953789 3.462560
Fe 1.088621 4.918583 8.240365
Fe 1.467205 1.178712 8.369245
Fe 4.696052 3.564234 2.445047
Fe 3.096296 4.177286 11.398351
Fe 3.553998 0.597218 11.570510
Fe 4.440159 2.661714 6.571319
Fe 4.794463 7.789796 2.182113
Si 0.162741 6.051177 -2.251857
Si 2.409557 1.731930 1.038926
Si 0.996538 7.601067 5.925524
Si 2.074215 0.614654 5.761563
Si 4.144908 5.311884 4.304435
Si 3.837359 3.109474 9.246308
O 0.013520 6.679802 1.523920
O 0.486869 0.780384 4.620778
O 0.114923 4.060113 3.060491
O 0.738090 6.876706 -1.014278
O 0.111472 7.135853 4.543970
O 1.714832 0.184398 1.257348
O 1.500277 2.971471 1.224885
O 1.943945 0.021670 7.251738
O 2.711909 2.173286 5.550900
O 1.473965 5.439760 10.079542
O 2.057417 8.792665 5.595772
O 3.030209 8.332797 0.856767
O 2.175776 3.018237 8.764719
O 1.885901 6.323762 7.150296
O 2.984290 5.844571 4.814142
O 3.482577 4.687403 2.981215
O 3.934272 1.527097 2.249447
O 4.312902 7.241775 -1.128267
O 4.281943 4.750727 0.517646
O 2.679271 2.138189 12.179964
O 4.355376 3.507392 7.926753
O 4.224795 4.346655 10.100023
O 4.513118 1.546281 10.214675
O 4.944610 8.447598 8.796323
