12

Li 2.377300 5.817883 3.373555
V 2.372814 5.817204 6.715096
P 0.901120 3.411757 5.165744
P 3.846017 3.854529 1.369800
O 0.018247 1.094829 2.948689
O 0.235512 1.127495 0.394621
O 2.006630 2.522514 5.225953
O 2.006630 4.633431 5.335776
O 2.741147 2.632259 1.202038
O 2.741147 4.744556 1.311932
O 4.510785 6.138662 6.139750
O 4.733740 6.172185 3.584220
