32

Li 0.000000 3.710317 3.702644
Li 0.000000 0.000000 0.000000
Ti 1.601667 5.804494 4.896180
Ti 1.601667 5.326456 1.193536
Ti 4.914101 2.094177 6.214115
Ti 4.914101 1.616140 2.511471
Ni 3.257884 3.710317 3.703825
Ni 3.257884 0.000000 0.001181
P 1.632285 2.736655 6.475909
P 1.632285 0.973661 2.773265
P 4.883484 6.446972 4.634385
P 4.883484 4.683978 0.931741
O 0.371047 1.841586 6.437922
O 0.371047 1.868731 2.735278
O 1.693468 6.289425 6.640255
O 1.634122 0.118626 4.043399
O 1.693468 4.841525 2.937611
O 1.634122 3.591690 0.340754
O 1.697293 3.647234 5.207044
O 1.697293 0.063083 1.504400
O 2.866782 1.794480 6.466138
O 2.866782 1.915837 2.763493
O 3.648987 5.504797 4.644157
O 3.648987 5.626154 0.941513
O 4.818476 7.357551 5.903251
O 4.818476 3.773400 2.200606
O 4.881646 3.828943 7.066896
O 4.822301 2.579108 4.470040
O 4.881646 7.302007 3.364252
O 4.822301 1.131209 0.767396
O 6.144721 5.551903 4.672373
O 6.144721 5.579047 0.969728
