15

Li 0.000167 2.901293 3.404747
Li 5.226696 4.345610 8.254642
Li 5.227000 7.246923 10.364310
Co -0.000481 2.900504 2.108705
Co 5.227219 4.346294 6.960136
Co 5.226331 7.246721 9.068482
Te 0.002195 0.000972 0.002163
O 10.054164 13.938437 18.264386
O 0.049091 3.200137 2.943753
O 5.694282 4.761137 8.182419
O 0.399720 0.555424 2.464140
O 4.809519 6.666329 9.152306
O 10.404480 11.294240 17.784815
O 4.758368 9.731819 12.544670
O 5.643738 7.826958 11.575490
