56

Li 0.019726 4.231769 4.291418
Li 1.060785 7.430353 3.200173
Li 3.193563 1.054561 7.485611
Li 4.241165 4.260773 0.012852
Li 4.278457 0.011337 4.257856
Li 5.312843 5.294500 5.330805
Li 7.451382 3.183191 1.059329
Ti 1.044020 5.308497 1.157567
Ti 1.121479 3.164439 7.503231
Ti 1.157690 1.032495 5.317111
Ti 3.169573 7.430410 1.117388
Ti 3.168756 5.366351 3.236431
Ti 3.233654 3.163966 5.404827
Ti 5.248260 7.408902 7.382032
Ti 5.281288 1.132550 1.038416
Ti 5.387281 3.223657 3.169113
Ti 7.355380 5.231252 7.454739
Ti 7.420184 7.329487 5.263067
Ti 7.453544 1.104579 3.173245
Fe 2.115919 6.363184 6.404912
Fe 2.141101 2.124835 2.143844
Fe 6.377441 6.356219 2.108383
Fe 6.381594 2.106444 6.401727
Fe 0.000221 0.014557 8.547751
O 0.905527 1.067395 3.354018
O 0.954936 5.194546 7.598120
O 0.919202 7.593016 5.330907
O 1.070512 3.305933 0.880359
O 1.051177 1.215470 7.327442
O 1.193628 5.298448 3.028922
O 1.188317 3.063144 5.462298
O 1.208597 7.308849 1.066652
O 3.027335 1.188383 5.331517
O 3.072404 5.407418 1.195374
O 3.058618 3.201492 7.299936
O 3.210489 7.269750 3.047504
O 3.181232 5.172699 5.164001
O 3.319053 0.915390 1.050931
O 3.295327 3.293778 3.329347
O 3.351008 7.404615 7.621792
O 5.147807 3.155572 5.191657
O 5.218815 7.543128 0.931141
O 5.189881 5.138875 3.209054
O 5.316911 0.923339 7.654037
O 5.309618 3.023147 1.217948
O 5.463268 7.440858 5.509328
O 5.436257 1.170593 3.072927
O 5.490100 5.444553 7.480686
O 7.283818 3.044278 3.213452
O 7.340734 7.319908 7.344854
O 7.322778 1.037080 1.246563
O 7.460046 5.464067 5.487742
O 7.419784 7.556640 3.364957
O 7.588310 3.327538 7.463034
O 7.560550 0.947652 5.213020
O 7.601543 5.303509 0.895694
