44

Li 1.524383 3.485325 3.981438
Li 4.859319 5.085558 4.771464
Fe 0.009097 1.094658 7.438257
Fe 1.607135 7.261120 8.088290
Fe 1.635128 6.731126 4.855643
Fe 1.600509 4.924435 0.510109
Fe 3.237980 1.104342 7.327335
Fe 3.145722 7.466541 1.425567
Fe 4.783193 3.646448 8.242793
Fe 4.748574 1.839757 3.897259
Fe 4.776567 1.309763 0.664613
Fe 6.374605 7.476224 1.314645
P 1.621773 4.045627 6.914464
P 1.580611 0.927557 4.524399
P 1.601837 1.512623 0.745410
P 4.781865 7.058260 8.007492
P 4.803091 7.643326 4.228504
P 4.761929 4.525256 1.838438
O 0.339562 3.169679 7.060570
O 0.359364 1.822599 4.266962
O 0.324796 0.910333 1.428708
O 1.638811 1.075659 8.949083
O 1.642590 5.123765 8.021771
O 1.603286 0.441456 6.047066
O 1.607372 4.754285 5.504331
O 1.589421 8.142640 3.024611
O 1.529682 6.877985 0.354347
O 1.586190 3.021928 0.919223
O 2.905491 3.173197 7.020890
O 2.768810 1.866611 4.213758
O 3.499571 7.633150 7.340388
O 2.884131 0.937733 1.412504
O 3.614893 6.704272 4.539145
O 3.478211 5.397686 1.732013
O 4.797512 5.548955 7.833680
O 4.854020 1.692897 8.398556
O 4.794282 0.428242 5.728291
O 4.776331 3.816598 3.248572
O 4.780416 8.129427 2.705837
O 4.741112 3.447118 0.731132
O 4.744891 7.495224 -0.196181
O 6.058906 7.660550 7.324194
O 6.024338 6.748284 4.485940
O 6.044140 5.401204 1.692332
