40

Li 2.013545 7.638141 7.786519
Li 6.414432 4.843713 6.635135
Li 6.398330 8.963474 6.406148
Li 6.462961 6.450935 9.578679
Ni 0.090275 7.631210 9.601578
Ni 0.466354 5.176912 6.472158
Ni 4.039630 6.090198 7.089619
Ni 3.577503 8.507402 10.210733
Ni 7.913808 7.119631 7.823807
Te 4.442972 3.713955 4.008244
P 2.084106 3.106885 5.879489
P 2.078924 8.243759 5.146240
P 2.064541 5.458809 9.243952
P 6.163878 6.963023 4.940983
P 6.258513 3.930668 9.076986
P 6.056680 9.139195 8.496223
O 0.612200 1.114809 2.800098
O 0.604012 4.239788 2.294618
O 0.607284 2.721563 4.787596
O 1.821121 1.767583 6.713736
O 3.851790 3.573656 5.641377
O 2.201884 4.369337 6.406008
O 1.812759 7.985862 3.906006
O 2.214149 6.962102 6.010565
O 4.575457 7.171496 4.139482
O 2.241794 5.696998 8.007233
O 6.380509 5.482116 4.798801
O 4.806238 10.293900 10.937659
O 3.851889 9.342479 5.629735
O 1.766629 6.785251 9.405456
O 6.007278 6.695988 6.212748
O 3.830298 5.334164 9.959522
O 6.044664 5.286341 8.290720
O 6.356668 4.281511 10.353946
O 6.025938 7.910436 7.906727
O 4.336122 8.717126 8.693804
O 6.356361 10.467124 7.514558
O 7.511529 9.544245 9.541068
O 7.769149 8.064619 12.040461
O 7.971248 11.377165 11.615195
