84

Li 10.376068 3.047178 9.609952
Li -0.004980 0.005112 14.302920
Li -0.004980 3.045110 14.302920
Li 10.387059 6.092496 4.838090
Li 10.387059 3.058171 4.838090
Li 10.376068 0.003044 9.609952
Li 5.240689 -0.001147 7.194446
Li 5.240689 3.051369 7.194446
Li 5.223938 -0.000647 2.398389
Li 5.223938 3.050869 2.398389
Li 5.242002 -0.001757 11.964861
Li 5.242002 3.051979 11.964861
Mn 2.275953 4.575334 2.293101
Mn 2.283609 4.575334 7.085313
Mn 2.936724 1.525111 9.474296
Mn 2.930724 1.525111 4.689094
Fe 2.264035 4.575334 11.846933
Fe 2.945391 1.525111 14.198943
Fe 7.489004 4.575334 0.163712
Fe 7.493588 4.575334 4.939085
Co 7.529455 4.575334 9.652636
Co 8.134618 1.525111 12.063291
Co 8.094365 1.525111 7.273098
Co 8.135806 1.525111 2.513520
P 0.969577 1.525111 11.564799
P 0.967046 1.525111 1.977443
P 0.937835 1.525111 6.775342
P 4.262070 4.575334 4.396184
P 4.258225 4.575334 9.187385
P 4.223837 4.575334 13.934691
P 6.230716 1.525111 5.196883
P 6.203516 1.525111 0.418676
P 6.242665 1.525111 9.982033
P 9.395917 4.575334 12.369601
P 9.400230 4.575334 2.837471
P 9.394344 4.575334 7.614459
O 0.422023 4.575334 3.377855
O 0.416075 4.575334 8.151965
O 0.425253 4.575334 12.896757
O 0.995527 1.525111 8.313260
O 1.015956 1.525111 13.099245
O 1.012248 1.525111 3.517652
O 1.702855 0.295853 1.333237
O 1.702855 2.754369 1.333237
O 1.669133 0.292907 6.129263
O 1.669133 2.757316 6.129263
O 1.708011 0.286581 10.930614
O 1.708011 2.763642 10.930614
O 3.538887 3.342720 8.525851
O 3.538887 5.807947 8.525851
O 3.533157 3.340744 3.754552
O 3.533157 5.809923 3.754552
O 3.482445 3.338188 13.300847
O 3.482445 5.812479 13.300847
O 4.214201 4.575334 5.936262
O 4.196304 4.575334 1.156819
O 4.185970 4.575334 10.722986
O 4.795987 1.525111 5.796973
O 4.755588 1.525111 0.989257
O 4.795018 1.525111 10.553016
O 5.704164 4.575334 3.816422
O 5.663619 4.575334 13.350349
O 5.718009 4.575334 8.625418
O 6.258500 1.525111 3.659296
O 6.250843 1.525111 13.196990
O 6.275251 1.525111 8.432061
O 6.936637 0.290808 1.070926
O 6.970755 0.291205 5.846152
O 6.962014 0.285519 10.632859
O 6.962014 2.764703 10.632859
O 6.936637 2.759414 1.070926
O 6.970755 2.759018 5.846152
O 8.670099 3.327439 13.001124
O 8.670099 5.823228 13.001124
O 8.672682 3.326402 3.469871
O 8.659942 3.335369 8.258373
O 8.672682 5.824265 3.469871
O 8.659942 5.815298 8.258373
O 9.367675 4.575334 10.824078
O 9.387479 4.575334 6.074956
O 9.378655 4.575334 1.297068
O 9.943357 1.525111 11.039221
O 9.930856 1.525111 1.465938
O 9.901832 1.525111 6.259156
