16

Li 0.000000 0.000000 1.264655
Li 0.000000 2.840784 3.331702
Li 5.173504 4.323782 8.175189
Li 5.173504 7.164566 10.242236
Mn 0.000000 2.840784 2.067047
Mn 5.173504 4.323782 6.910534
Mn 5.173504 7.164566 8.977581
Fe 0.000000 0.000000 0.000000
O 10.347009 8.647564 14.440142
O 0.000000 2.832961 2.726166
O 5.159257 4.311874 7.556314
O 0.000000 5.681569 6.044330
O 5.187752 7.184297 9.660149
O 0.000000 2.848608 3.937238
O 5.187752 4.335689 8.794064
O 5.159257 7.144835 10.824324
