20

Li 1.778996 6.523439 2.431766
Li 0.882320 5.314278 6.391870
Li 3.032157 6.870349 0.132252
Li 1.142705 4.322436 4.092356
Li 1.031905 1.391516 5.528504
Li 6.277756 8.465510 1.568399
Li 4.277504 2.986678 4.092356
Li 6.166956 5.534591 0.132252
Li 5.530665 3.333588 6.391870
Li 6.427341 4.542749 2.431766
Sb 2.441178 3.291912 0.751089
Sb 4.868483 6.565115 4.711194
S 3.679245 8.079688 6.070690
S 0.116099 3.274812 2.110585
S 0.158349 0.213533 0.237107
S 7.151312 9.643494 4.197212
S 3.516239 4.741624 5.643030
S 3.793422 5.115403 1.682926
S 3.630416 1.777338 2.110585
S 7.193562 6.582215 6.070690
