24

Fe 1.871058 2.305372 4.414787
Fe 3.742144 -0.250805 8.866319
Co 0.942021 3.574727 1.889408
Co 0.942133 1.160524 1.889647
Co 3.729553 2.180751 1.889049
Co 1.883216 -0.126162 6.342290
Co 4.671759 0.894350 6.341959
Co 4.671725 -1.520349 6.342242
O 0.898764 3.633449 5.393393
O 0.219647 2.416060 2.937145
O 1.870794 2.305125 0.894591
O 0.000399 0.000301 2.841748
O 0.000292 0.000233 7.298319
O 0.898556 1.107331 5.392863
O 2.697251 3.322627 2.937117
O 2.697061 1.177703 2.937283
O 1.798880 -0.120486 0.940555
O 3.815505 2.175054 5.393123
O 2.916534 0.877436 7.389178
O 2.916450 -1.267988 7.389416
O 3.742037 -0.251145 5.347574
O 4.713657 0.946481 0.940076
O 5.394132 -0.361262 7.389094
O 4.713994 -1.578592 0.939617
