38

Li 2.657099 5.181178 5.279660
Li 1.110006 4.450959 1.511130
Li 7.008108 -0.619260 5.146117
Li 5.461015 -1.349479 1.377588
Cr 5.142679 4.145300 7.587556
Cr 1.071973 2.223952 4.260972
Cr 7.046141 1.607747 2.396275
Cr 2.975435 -0.313601 -0.930309
S 1.987745 3.139763 7.040516
S 3.691128 3.943749 2.702749
S 7.683145 3.626396 4.713689
S 0.434969 0.205302 1.943558
S 4.426986 -0.112050 3.954499
S 6.130369 0.691936 -0.383268
O 1.092244 6.546795 8.957746
O 0.343469 6.193379 5.049411
O 1.053317 3.234234 8.243760
O 3.161445 4.058030 6.881106
O 1.018969 3.663266 6.096338
O 4.032227 4.640260 3.682618
O 6.456580 3.886804 5.742403
O 2.732776 1.755987 6.773074
O 2.113811 3.563553 3.025109
O 3.573261 4.868876 1.609556
O 0.731580 1.184640 2.705526
O 3.249235 1.067484 4.297721
O 4.868879 2.764215 2.359527
O 7.386534 2.647059 3.951721
O 4.544853 -1.037177 5.047691
O 6.004303 0.268146 3.632138
O 5.385338 2.075711 -0.115826
O 1.661534 -0.055105 0.914845
O 4.085887 -0.808561 2.974630
O 7.099145 0.168433 0.560910
O 4.956669 -0.226331 -0.223859
O 7.064797 0.597465 -1.586513
O 7.774645 -2.361680 1.607836
O 7.025870 -2.715097 -2.300498
