38

Li 4.410444 1.574079 1.574930
Li 0.000000 4.177693 1.850554
Mo 7.305864 9.523554 0.708133
Mo 2.896488 6.569003 0.988161
Mo 1.515023 1.979991 6.142837
Mo 5.924399 4.934542 5.862809
P 4.931767 3.931963 3.384888
P 8.299811 4.226316 4.185603
P 0.521076 7.277230 2.665367
P 6.615912 6.636074 7.812806
P 3.889120 7.571583 3.466082
P 2.204975 4.867472 -0.961837
O 0.819831 6.524712 1.737739
O 5.128490 6.007207 0.714159
O 0.292095 0.414434 5.916810
O 3.532157 4.599692 2.368375
O 7.942953 9.934648 6.353120
O 4.703059 4.164516 4.567573
O 6.615604 4.542162 3.164284
O 6.780969 9.127695 2.038021
O 2.039918 2.375851 4.812949
O 0.716882 5.287760 -2.007762
O 7.027689 6.205244 6.734195
O 6.447407 3.528683 6.953577
O 5.229304 2.448065 3.438928
O 2.618101 3.351074 6.879299
O 8.528792 11.089112 0.934160
O 8.001056 4.978833 5.113230
O 8.104005 6.215785 8.858732
O 3.692397 5.496339 6.136811
O 2.373480 7.974862 -0.102608
O 4.117828 7.339029 2.283397
O 1.793198 5.298301 0.116775
O 5.288730 6.903853 4.482595
O 3.591583 9.055481 3.412041
O 6.202786 8.152471 -0.028329
O 2.205284 6.961383 3.686685
O 0.877934 1.568897 0.497849
