30

Li 0.623780 7.507087 -0.080253
Li 1.149042 3.488529 1.181947
Li 0.373930 9.036006 1.504689
Li 1.518654 0.103764 2.183168
Li 1.042536 5.409486 2.534269
Li 3.295259 2.036007 1.856183
Li 2.376362 7.455278 2.528217
Li 1.539804 1.894230 4.141608
Li 4.039074 9.239872 1.929325
Li 3.202516 3.678824 3.542717
Li 2.283619 9.098095 4.214751
Li 4.060223 11.030338 3.887765
Li 4.536342 5.724616 3.536665
Li 5.204948 2.098096 4.566244
Li 4.429835 7.645573 4.888986
Li 4.955098 3.627015 6.151186
Mn 0.000000 0.000000 0.000000
Mn 2.789439 5.567051 0.719792
O 0.222006 9.770774 0.069391
O 1.496891 1.387741 0.997044
O 0.744172 6.880163 1.421968
O 2.953352 4.199109 2.052737
O 2.625526 6.934993 4.018197
O 4.834706 4.253939 4.648965
O 4.081987 9.746361 5.073890
O 5.356872 1.363328 6.001543
F 2.135656 9.503168 2.591326
F 1.234338 3.973525 4.263209
F 4.344540 7.160577 1.807724
F 3.443222 1.630934 3.479607
