21

Li 5.271853 2.832987 3.228536
Li 5.273460 3.931040 5.915370
Li 0.026932 5.144995 6.162420
Ti 2.675605 4.546147 2.416848
Ti 2.481230 2.393808 4.276811
Ti 2.654479 3.431152 7.021312
V 2.616945 1.451385 1.620744
V 2.782395 5.493138 5.094115
V 2.651714 0.459214 6.248816
O 1.574508 5.678142 3.337121
O 1.470710 2.822348 2.590309
O 1.543171 0.715873 4.510110
O 1.535218 3.786138 5.254600
O 1.580568 1.785511 7.226936
O 1.515425 4.642607 7.930780
O 3.769103 4.103427 4.068121
O 3.715948 1.300221 3.371551
O 3.687102 2.313134 5.989657
O 3.808625 5.130765 6.866174
O 3.745841 3.241543 8.767489
O 3.749278 0.093007 7.957888
