34

Mn 4.916000 4.008745 7.440425
Mn 1.011585 2.152883 4.144429
Mn 6.766367 1.544165 2.453142
Mn 2.861952 -0.311697 -0.842854
S 1.898995 2.964303 7.022612
S 3.597427 3.771609 2.714298
S 7.482615 3.556667 4.650211
S 0.295337 0.140381 1.947360
S 4.180525 -0.074561 3.883273
S 5.878957 0.732745 -0.425033
O 1.232230 6.310743 8.814239
O 0.210145 5.824921 4.997467
O 1.033239 2.980151 8.205593
O 3.087435 3.884040 6.783084
O 0.920490 3.448572 6.077031
O 3.990245 4.385687 3.669881
O 6.279110 3.800856 5.708866
O 2.735296 1.584739 6.624473
O 2.016302 3.374905 2.975173
O 3.525310 4.686706 1.604952
O 0.595550 1.099324 2.734324
O 3.050233 1.165262 4.334530
O 4.727719 2.531786 2.263042
O 7.182402 2.597724 3.863247
O 4.252642 -0.989658 4.992619
O 5.761650 0.322143 3.622399
O 5.042656 2.112309 -0.026902
O 1.498842 -0.103809 0.888705
O 3.787707 -0.688639 2.927690
O 6.857463 0.248475 0.520540
O 4.690517 -0.186992 -0.185512
O 6.744713 0.716897 -1.608021
O 7.567807 -2.127873 1.600105
O 6.545722 -2.613695 -2.216668
