92

Li 0.111839 5.345016 6.003956
Li 7.323432 2.670603 3.710596
Li 16.051341 2.738062 1.695315
Li 8.839749 5.412474 10.213777
Fe 2.770064 3.920293 0.084019
Fe 13.120160 5.317453 2.797235
Fe 6.371007 0.573436 10.697703
Fe 15.098917 0.640894 5.520030
Fe 4.392251 5.249994 2.608676
Fe 6.198666 0.609271 5.673698
Fe 11.497974 3.987752 5.321892
Fe 4.291967 2.056399 8.018491
Fe 11.083660 3.830999 0.074223
Fe 2.355750 3.763540 5.331688
Fe 14.926576 0.676730 10.544035
Fe 13.019877 2.123857 8.199243
P 0.947484 4.217462 2.555320
P 1.282968 3.020719 8.227862
P 5.612238 3.781142 10.556425
P 10.010877 3.088178 7.989872
P 9.675394 4.284921 2.850591
P 5.161214 3.851592 5.450164
P 12.292510 0.713774 5.370621
P 3.564600 0.646315 0.035290
P 16.412799 1.218207 8.310518
P 7.402594 6.155384 2.796813
P 3.149815 0.560061 5.152147
P 7.684889 1.150748 7.907215
P 16.130504 6.222843 2.609098
P 14.340147 3.848601 5.661308
P 11.877725 0.627519 0.253764
P 13.889124 3.919050 10.767569
O 13.368626 0.383779 4.241164
O 10.198702 3.953404 6.759476
O 4.161415 4.010785 4.222222
O 10.972169 5.897775 10.690589
O 11.396992 5.964786 5.609087
O 6.404994 4.992595 2.805895
O 16.662801 0.354761 9.550688
O 0.354650 3.107721 1.752996
O 15.132903 5.060054 2.600016
O 12.856508 3.616777 9.625073
O 8.570231 2.448303 7.794448
O 15.211891 2.597968 5.440682
O 4.552129 3.585180 9.407940
O 6.499098 5.002687 10.339270
O 6.483981 2.530510 10.777051
O 2.402497 4.512870 2.079222
O 2.244260 5.830317 5.527144
O 15.227008 5.070146 5.878463
O 13.366165 4.074349 4.429052
O 13.293584 0.873793 6.602358
O 16.287187 0.427300 3.988124
O 4.245290 0.781272 6.291572
O 4.565674 0.806335 9.615375
O 11.076346 1.977806 8.111559
O 7.934892 0.287302 6.667045
O 8.858497 5.654255 3.219036
O 12.889325 4.078244 1.183689
O 13.280038 3.652639 6.809794
O 16.628518 0.568715 6.943179
O 0.130587 5.586796 2.186875
O 2.669082 5.897327 10.608646
O 15.748675 0.824636 1.546923
O 9.082559 3.175180 3.652915
O 14.837411 2.733477 0.206127
O 14.671878 5.186953 10.506010
O 4.640717 0.316320 1.164747
O 11.539536 2.016377 5.089157
O 7.020765 0.757178 3.858988
O 9.881058 3.900605 9.292761
O 1.470792 3.885945 9.458258
O 0.870347 4.087911 4.080544
O 4.128598 3.549318 6.592660
O 2.331696 1.855727 4.986131
O 14.958729 1.741067 8.493930
O 7.900608 0.501256 9.274554
O 5.943968 5.119494 5.711724
O 9.598257 4.155370 1.325367
O 6.109502 2.666019 5.199784
O 12.700383 0.330170 1.544923
O 4.638256 4.006890 0.976859
O 6.230820 1.673608 7.723804
O 3.972473 0.262711 3.860988
O 7.559277 0.359841 1.417787
O 2.811626 1.948918 0.316754
O 2.348436 1.910348 8.106175
O 11.059606 1.923185 0.419780
O 17.298141 2.515762 8.423285
O 11.130406 4.580329 3.326690
O 12.973200 0.848731 9.926161
O 1.153149 3.833146 6.924972
