72

Li 0.291972 4.981346 3.028326
Li 2.426083 1.660449 0.910755
Li 2.558239 3.495975 3.725717
Li 2.558239 6.466717 3.725717
Li 2.700239 0.175078 9.254421
Li 2.700239 3.145819 9.254421
Li 2.832396 4.981346 6.439459
Li 4.966507 1.660449 8.557030
Li 5.550451 4.981346 2.500379
Li 7.684562 1.660449 4.617950
Li 7.816718 3.495975 1.802988
Li 7.816718 6.466717 1.802988
Li 7.958718 0.175078 7.331692
Li 7.958718 3.145819 7.331692
Li 8.090874 4.981346 10.146654
Li 10.224986 1.660449 8.029083
Cr 0.000000 0.000000 0.000000
Cr 0.000000 3.320897 0.000000
Cr 0.000000 0.000000 5.528704
Cr 0.000000 3.320897 5.528704
Cr 5.258479 0.000000 5.528704
Cr 5.258479 3.320897 5.528704
Cr 5.258479 0.000000 0.000000
Cr 5.258479 3.320897 0.000000
P 0.215997 4.981346 8.228083
P 2.570597 4.981346 0.867531
P 2.687882 1.660449 6.396236
P 5.042482 1.660449 2.699379
P 5.474476 4.981346 8.358030
P 7.829076 4.981346 4.661173
P 7.946361 1.660449 10.189878
P 10.300960 1.660449 2.829326
O 0.319211 1.660449 1.345045
O 0.376612 0.396887 3.521663
O 0.376612 2.924010 3.521663
O 1.129016 1.660449 6.169802
O 1.763694 4.981346 8.213167
O 2.024925 3.703192 0.168084
O 2.024925 6.259499 0.168084
O 2.249746 4.981346 2.361299
O 3.008733 1.660449 7.890003
O 3.233554 0.382295 5.696788
O 3.233554 2.938602 5.696788
O 3.494785 1.660449 2.684462
O 4.129462 4.981346 0.641098
O 4.881867 3.717784 9.050368
O 4.881867 6.244907 9.050368
O 4.939268 4.981346 6.873750
O 5.577690 1.660449 4.183659
O 5.635091 0.396887 2.007041
O 5.635091 2.924010 2.007041
O 6.387495 1.660449 10.416311
O 7.022173 4.981346 8.372946
O 7.283403 3.703192 5.360621
O 7.283403 6.259499 5.360621
O 7.508224 4.981346 3.167406
O 8.267212 1.660449 8.696110
O 8.492033 0.382295 10.889325
O 8.492033 2.938602 10.889325
O 8.753264 1.660449 2.844242
O 9.387941 4.981346 4.887607
O 10.140345 3.717784 7.535746
O 10.140345 6.244907 7.535746
O 10.197747 4.981346 9.712364
F 0.729751 1.660449 9.614107
F 1.585032 4.981346 4.974087
F 3.673447 1.660449 10.502791
F 4.528728 4.981346 4.085403
F 5.988230 1.660449 6.972006
F 6.843511 4.981346 0.554618
F 8.931926 1.660449 6.083322
F 9.787207 4.981346 1.443301
