34

Ti 3.155906 4.305526 5.059056
Ti 5.521151 7.532371 8.850646
Ti 7.494435 10.224475 12.013907
Ti 1.182622 1.613423 1.895795
P 0.288339 5.794254 5.334638
P 4.626867 9.579057 6.486530
P 2.169264 5.093620 9.280385
P 6.507793 6.744278 4.629317
P 4.050190 2.258840 7.423172
P 8.388719 6.043644 8.575064
O 0.499026 7.157910 4.542403
O 0.719241 5.767462 8.850467
O 5.494026 10.246291 10.878757
O 4.353696 8.690567 9.326819
O 1.892345 5.330487 5.540017
O 4.837555 8.290641 7.317238
O 6.230873 10.191511 6.033313
O 0.015167 1.542459 3.124156
O 2.570951 5.029253 3.466160
O 1.155498 2.805576 4.855155
O 1.767577 3.640621 1.805255
O 3.619287 5.995631 8.745955
O 5.057770 5.842267 5.163746
O 6.909480 8.197276 12.104447
O 7.521560 9.032322 9.054547
O 8.661890 10.295439 10.785546
O 6.106106 6.808645 10.443542
O 2.446184 1.646387 7.876389
O 3.839502 3.547257 6.592464
O 6.784713 6.507410 8.369685
O 4.323361 3.147331 4.582882
O 3.183031 1.591606 3.030945
O 7.957816 6.070436 5.059235
O 8.178031 4.679987 9.367299
