24

Na 2.111878 3.279881 1.243047
Na 2.111878 0.040529 1.243047
Na 6.893260 3.360939 4.105204
Na 6.893260 6.600292 4.105204
Mn 3.224455 4.980616 4.103522
Mn 5.780692 1.660205 1.244729
P 3.828412 1.660205 3.746595
P 5.176735 4.980616 1.601656
C 0.710713 4.980616 3.776560
C 8.294434 1.660205 1.571691
O 0.541308 1.660205 1.447363
O 1.395789 4.980616 4.913328
O 1.476349 4.980616 2.723440
O 3.010502 0.407514 4.140511
O 3.010502 2.912896 4.140511
O 3.787871 4.980616 0.935432
O 4.036017 1.660205 2.169591
O 4.969130 4.980616 3.178660
O 5.217276 1.660205 4.412819
O 5.994646 3.727924 1.207740
O 5.994646 6.233307 1.207740
O 7.528799 1.660205 2.624811
O 7.609359 1.660205 0.434923
O 8.463839 4.980616 3.900888
