40

Li 6.223216 3.820953 5.806027
Li 2.009542 7.262274 7.830991
Li 5.450464 4.110508 9.273764
Li 7.132163 8.090139 6.504728
Mn 1.198705 1.624512 1.956863
Mn 2.973162 3.968411 4.825393
Mn 5.478604 7.287398 8.857619
Cu 7.118704 9.468266 11.430747
Ni 0.051703 0.023655 7.284539
Ni 4.153807 5.587356 6.798824
P 0.590130 5.884289 5.330343
P 3.672896 2.035092 7.302973
P 6.273003 6.081897 4.332050
P 2.086456 5.007811 9.290012
P 4.598690 9.233779 6.311544
P 7.869155 5.290593 8.126585
O 0.886480 2.723780 4.794646
O 2.729193 4.974609 3.247623
O 0.650299 7.138787 4.368665
O 4.379959 2.741778 4.634114
O 0.443679 6.269058 6.525780
O 2.191711 5.375440 5.508262
O 2.041972 1.478744 7.668956
O 3.708489 3.487430 6.600159
O 1.420013 3.556781 8.924212
O 5.083190 5.398625 5.183501
O 0.792668 5.934865 9.096068
O 3.244408 1.554249 2.827863
O 5.001407 2.366173 8.316593
O 7.529777 5.106486 4.565614
O 3.285772 5.676356 8.440658
O 6.806177 7.542870 4.721925
O 4.698541 7.772916 6.931044
O 6.224186 9.826544 5.917423
O 6.239402 5.733067 8.008697
O 7.957328 4.849476 6.936048
O 3.944235 8.504995 9.052275
O 7.826017 4.078104 9.137150
O 5.733078 6.013051 10.360563
O 7.598251 8.503403 8.510395
