20

Li 1.439802 6.258561 5.846547
Li 4.184261 9.321208 11.101619
Li 4.190080 4.725232 7.945392
Li 1.381009 10.796184 8.954403
Nb 2.533690 7.492226 8.047526
Nb 5.427146 10.730464 13.450910
Nb 2.683151 12.251859 11.314172
Te 5.383184 15.283472 16.511754
O 1.911004 9.603974 7.555520
O 3.254961 9.964772 11.540218
O 1.082272 7.017698 7.672727
O 1.849690 4.908933 4.357220
O 0.452995 8.104981 8.666431
O 3.850825 12.359404 11.269915
O 3.202021 5.237702 8.336082
O 4.676287 11.601344 10.445616
O 1.096566 2.440422 4.532586
O 0.431025 3.512030 5.516063
O 3.878653 7.828971 8.149905
O 4.657526 7.042364 7.288681
