72

Co 0.481519 6.282323 2.337429
Co 0.714393 11.851252 1.737288
Co 0.955268 1.168303 2.338193
Co 3.495168 6.505107 6.490669
Co 3.736043 11.309117 5.889765
Co 3.968917 1.391086 6.489905
Co 4.931956 13.955733 1.815047
Co 5.164829 4.037702 2.415188
Co 5.405705 8.841712 1.814283
Co 7.945604 14.178516 5.966760
Co 8.186480 3.495567 6.567665
Co 8.419353 9.064495 5.967524
P 0.573448 6.295124 5.506831
P 0.761487 11.888655 6.913815
P 0.980102 1.211662 5.526971
P 3.470335 6.461747 1.374495
P 3.688949 11.271714 2.761339
P 3.876989 1.378285 1.354355
P 5.023884 13.968533 6.950598
P 5.211915 4.075105 5.543614
P 5.430538 8.885072 6.930458
P 7.920771 14.135156 2.777982
P 8.139394 3.458163 1.391138
P 8.327425 9.051695 2.798121
O 0.178382 13.236947 2.848192
O 0.049507 9.421828 4.197174
O 0.230230 8.095250 2.046888
O 0.376543 2.940078 2.205928
O 0.493607 15.429521 6.260747
O 0.533759 4.993342 6.330558
O 0.829837 12.529513 0.016361
O 0.486940 10.367110 7.037268
O 1.443980 0.832424 4.098436
O 2.050904 6.737121 5.354128
O 2.103054 12.126877 6.190221
O 2.160571 1.817232 6.308916
O 2.289865 5.856178 2.156439
O 2.347383 11.033492 2.037745
O 2.399533 0.936288 1.201652
O 3.006457 6.840970 8.250912
O 3.963496 12.793260 2.884792
O 3.620599 10.630856 4.168837
O 3.916678 2.680067 2.178082
O 3.956830 7.730848 2.108270
O 4.073894 4.733331 6.358405
O 4.220206 15.065119 6.199365
O 4.400930 13.738542 0.044697
O 4.272054 9.923422 7.000668
O 4.628819 5.423396 1.304285
O 4.499943 1.608277 8.260256
O 4.680666 0.281699 2.105588
O 4.826979 10.613488 1.946548
O 4.944043 7.615971 6.196682
O 4.984195 12.666752 6.126871
O 5.280274 4.715963 4.136116
O 4.937376 2.553559 5.420161
O 5.894416 8.505833 0.054040
O 6.501340 14.410531 7.103301
O 6.553490 4.313327 6.267208
O 6.611008 9.490641 6.148514
O 6.740302 13.529587 1.996037
O 6.797819 3.219941 2.114732
O 6.849969 8.609697 2.950824
O 7.456893 14.514395 4.206517
O 8.413933 4.979709 1.267685
O 8.071036 2.817305 8.288592
O 8.367114 10.353477 1.974386
O 8.407266 -0.082703 2.044206
O 8.524330 12.406740 6.099024
O 8.670643 7.251569 6.258064
O 8.851366 5.924991 4.107779
O 8.722490 2.109872 5.456761
