16

Li 2.312182 1.323196 9.875113
Li 1.531683 4.190837 9.681517
Li 1.546548 -0.776436 2.569942
Li 0.776555 2.088075 7.546067
Li 3.040018 3.428888 7.099158
Li 3.059407 -1.519176 10.274625
Mn 2.274995 1.274931 4.769720
Mn 0.785398 2.163066 2.360987
O 2.700130 2.420486 3.377934
O 0.359704 1.017946 3.750646
F 2.676601 2.369558 8.579494
F 1.913698 0.269505 6.414957
F 1.938271 0.317308 0.930089
F 0.382828 1.057201 8.838332
F 1.166528 3.154466 10.999253
F 1.121575 3.123091 6.204285
