52

Li 2.264243 10.534177 2.737539
Li 2.744812 3.519212 2.737539
Li 7.273298 10.534177 2.240773
Li 7.753867 3.519212 2.240773
Ni 0.357697 10.550550 0.288518
Ni 2.314364 0.009596 2.702133
Ni 2.694691 7.024562 2.702133
Ni 4.651358 3.535585 0.288518
Ni 5.366752 10.550550 4.689794
Ni 7.323419 0.009596 2.276179
Ni 7.703746 7.024562 2.276179
Ni 9.660413 3.535585 4.689794
P 0.250753 5.274482 2.181402
P 2.145168 1.802369 0.267714
P 2.863887 8.817334 0.267714
P 4.758302 12.289448 2.181402
P 5.259808 5.274482 2.796911
P 7.154223 1.802369 4.710599
P 7.872942 8.817334 4.710599
P 9.767357 12.289448 2.796911
O 9.976184 12.072713 4.330933
O 0.410783 13.602916 2.412475
O 0.440867 11.051054 2.107927
O 0.632063 2.030818 4.925707
O 1.757277 5.254602 2.521256
O 2.101529 10.066363 4.667671
O 2.461800 7.507107 4.590178
O 2.396362 1.789153 1.792665
O 2.612693 8.804118 1.792665
O 2.547255 0.492142 4.590178
O 2.907526 3.051398 4.667671
O 3.251778 12.269567 2.521256
O 4.376992 9.045784 4.925707
O 4.568188 4.036088 2.107927
O 4.598272 6.587950 2.412475
O 5.050981 5.057748 4.330933
O 4.967129 12.072713 0.647380
O 5.419838 13.602916 2.565837
O 5.449922 11.051054 2.870386
O 5.641118 2.030818 0.052606
O 6.766332 5.254602 2.457056
O 7.110584 10.066363 0.310642
O 7.470855 7.507107 0.388134
O 7.405417 1.789153 3.185647
O 7.621748 8.804118 3.185647
O 7.556310 0.492142 0.388134
O 7.916581 3.051398 0.310642
O 8.260833 12.269567 2.457056
O 9.386047 9.045784 0.052606
O 9.577243 4.036088 2.870386
O 9.607327 6.587950 2.565837
O 0.041926 5.057748 0.647380
