22

Li 1.972879 1.874213 9.135249
Li 1.671894 2.141112 4.953834
Li 4.056026 4.169146 4.600614
Li 3.755041 4.436046 0.419198
Cr 1.087858 4.616972 8.263824
Cr 1.201637 4.742319 3.632618
Cr 4.526282 1.567940 5.921830
Cr 4.640062 1.693286 1.290623
O 1.853715 5.792656 7.612508
O 0.398119 3.566022 7.178327
O 2.221957 3.765190 8.716253
O 0.101883 3.862720 2.889818
O 5.458713 6.013682 7.222854
O 2.184159 5.533643 2.629122
O 2.180957 3.720021 4.077457
O 3.546963 2.590238 5.476990
O 3.543761 0.776616 6.925326
O 0.269206 0.296576 2.331594
O 5.626037 2.447539 6.664629
O 3.505962 2.545069 0.838194
O 5.329801 2.744236 2.376121
O 3.874204 0.517603 1.941940
