27

Na 4.153894 7.015159 1.281275
Na 5.400273 1.049446 -0.323651
Na 1.575442 4.854971 1.080024
Na 2.976222 6.065492 3.756221
Na 6.522016 1.989920 2.284814
Li 0.507287 3.925519 3.534757
Li 2.341613 2.051583 0.228669
Li 7.110187 5.933719 0.733104
Ti 0.052456 0.084126 5.027862
Ti 1.102087 0.991378 2.579999
Ti 3.433334 2.960117 2.976212
Ti 4.770028 3.989296 0.552653
Ti 6.061093 5.038584 3.207764
O 0.396258 1.739055 4.227383
O 1.799592 0.121177 1.034313
O 3.133351 1.199449 3.519127
O 1.626369 2.857023 2.144477
O 2.886999 3.869303 -0.572228
O 0.816437 6.307341 2.814890
O 4.320653 2.277420 1.285872
O 5.370912 3.233295 3.911099
O 7.670162 0.790505 0.582686
O 3.980067 4.814907 2.065618
O 5.176734 5.746891 -0.347906
O 6.508724 4.155970 1.543992
O 7.840359 5.115782 -1.199261
O 6.380568 6.825230 2.533747
