44

Mn 4.100207 11.199432 1.346274
Mn 0.037877 8.028337 4.302063
Mn 4.024453 1.619081 2.636325
Mn 8.086783 4.790176 -0.319463
P 2.029629 12.367647 3.965109
P 6.091959 6.860122 1.009321
P 6.095030 0.450866 0.017490
P 2.032700 5.958391 2.973279
P 2.070838 8.690529 1.915521
P 6.133167 10.537241 3.906821
P 6.053822 4.127984 2.067078
P 1.991492 2.281272 0.075778
H 0.832648 10.667989 3.046979
H 4.894977 8.559780 0.091191
H 7.292012 2.150523 0.935621
H 3.229682 4.258733 3.891409
O 2.717910 7.331202 2.589121
O 6.780240 11.896567 -0.366668
O 5.406750 5.487311 1.393479
O 1.344420 0.921946 4.349268
O 2.453598 11.568272 0.252945
O 6.515928 7.659497 2.244244
O 5.671061 1.250241 3.729655
O 1.608731 5.159016 1.738355
O 0.900147 9.115091 2.729560
O 4.962477 10.112679 -0.226228
O 7.224512 3.703422 1.253039
O 3.162183 2.705834 4.208828
O 3.243502 12.677355 3.121016
O 7.305832 6.550414 0.165227
O 4.881157 0.141157 0.861584
O 0.818828 6.268099 3.817372
O 1.663703 8.342993 0.481666
O 5.726033 10.884776 2.472966
O 6.460957 4.475520 3.500934
O 2.398627 1.933737 1.509634
O 3.278333 9.642739 2.057971
O 7.340663 9.585030 4.049271
O 4.846327 3.175774 1.924628
O 0.783997 3.233483 -0.066672
O 0.834167 11.682126 3.160785
O 4.896497 7.545643 0.204996
O 7.290493 1.136387 0.821815
O 3.228163 5.272870 3.777603
