12

Li 2.325632 -0.155227 13.430062
Mn 1.162870 1.432782 5.256143
Mn 1.163212 1.432759 15.855160
Mn 1.162748 1.432792 10.610762
Mn 2.325824 -0.155241 7.940116
Mn 2.325935 -0.155249 2.566892
O 1.162835 1.432784 7.414011
O 1.162894 1.432782 2.040627
O 2.325845 -0.155243 4.722732
O 2.324972 -0.155188 15.317055
O 2.325702 -0.155232 10.103382
F 1.162643 1.432796 12.735143
