12

Li 4.446411 3.417511 1.957997
Li 2.203432 1.949613 2.523271
Cu 5.133512 1.539779 -0.175179
Cu 1.516330 3.827345 4.656447
C 4.922214 4.951090 4.054603
C 1.727629 0.416034 0.426665
O 4.914726 3.717960 0.547062
O 5.226165 4.809122 3.053244
O 4.601339 1.237346 2.150386
O 2.048504 4.129777 2.330882
O 1.423678 0.558002 1.428025
O 1.735117 1.649164 3.934207
