42

Li 4.035717 5.413205 1.091806
Li 0.041203 5.109620 0.219444
Li 3.888932 5.357825 4.802915
Li 2.056674 2.724281 5.943052
Li 1.909889 2.668901 9.654161
Li 5.904403 2.972486 10.526523
Mn 2.060920 2.682931 0.563472
Mn 1.003410 3.916689 3.073115
Mn 3.978140 2.795296 2.869021
Mn 1.967466 5.286809 7.876946
Mn 4.942196 4.165417 7.672852
Mn 3.884687 5.399175 10.182495
Mn 0.000000 0.000000 5.417876
Mn 2.972803 1.459922 12.509073
Fe 4.939027 6.741042 7.752889
Fe 1.006579 1.341064 2.993078
Fe 0.000000 2.581130 12.729456
Fe 2.972803 4.041053 12.596818
O 4.907664 6.907935 4.189744
O 1.722936 5.214039 4.281275
O 0.304373 2.610047 1.850742
O 3.066821 3.843844 1.717102
O 2.068025 2.737428 3.965336
O 0.906467 4.075685 6.747468
O 2.935102 1.591382 1.744870
O 5.881518 8.025147 1.935980
O 3.877582 5.344678 6.780631
O 5.039139 4.006421 3.998499
O 3.010504 6.490724 9.001097
O 2.878785 4.238261 9.028865
O 5.641233 5.472059 8.895225
O 4.755884 6.628212 11.401297
O 2.169665 5.343003 11.524508
O 1.037942 1.174171 6.556223
O 4.222671 2.868066 6.464692
O 4.792634 4.300384 11.270166
O 3.957812 5.442644 13.599830
O 0.064088 0.056959 8.809987
O 1.987795 2.639462 11.593806
O 1.152972 3.781721 13.923470
O 3.775941 2.739103 13.669128
O 1.189722 1.453893 13.792339
