44

Li 4.921342 4.305458 9.387334
Li 0.021050 2.529544 5.806901
Li 2.545992 6.210108 12.315974
Li 2.779782 4.434193 2.878260
Li 2.354300 0.064368 3.630813
Li 2.588091 1.840282 7.211246
Li 5.113033 6.899369 0.702173
Li 0.212741 8.675284 10.139887
Sb 0.291657 8.234701 6.848834
Sb 2.275384 0.504951 0.339761
Sb 2.858698 4.874777 6.169313
Sb 4.842426 3.864875 12.678387
S 4.994682 1.780250 2.314666
S 2.706442 6.959402 8.823739
S 2.427641 2.589576 10.703482
S 0.139401 6.150075 4.194408
O 0.120671 1.037851 0.989965
O 0.799572 7.454023 4.603620
O 1.063443 5.360518 3.377506
O 1.155276 2.013179 2.982340
O 1.411765 6.726473 9.491414
O 1.503598 3.379134 9.886580
O 1.767470 1.285629 11.112694
O 2.446370 7.701801 7.499039
O 2.687713 3.331975 12.028182
O 3.366613 5.655455 8.414527
O 3.630485 7.748960 9.640641
O 3.722318 2.356647 10.035807
O 3.978806 6.383005 3.526733
O 4.070640 0.990692 3.131567
O 4.334511 3.084197 1.905453
O 5.013411 5.407677 5.519109
F 0.565468 0.758174 8.414826
F 1.068059 5.343580 0.254257
F 1.413521 0.890754 5.925014
F 1.153521 7.848898 12.434088
F 1.498983 3.396071 6.763331
F 2.001574 7.981478 1.905753
F 3.132509 3.611652 4.603321
F 3.635100 7.765897 12.763890
F 3.980562 3.479072 7.093133
F 3.720562 5.260580 0.584059
F 4.066024 0.973755 6.254816
F 4.568615 5.127999 11.112395
