48

Li -0.000665 2.041172 2.479798
Li 7.550868 0.338150 7.882885
Li 7.551004 6.525040 2.572648
Li 7.554298 4.513219 7.827429
Li 3.777168 0.678028 2.779051
Li 3.773345 2.689349 8.033023
Li 3.773451 4.195145 2.723035
Li 3.777085 5.876546 8.126888
V 1.870571 3.781817 10.561204
V 1.890964 5.672561 5.259888
V 1.887224 1.825391 5.346292
V 1.908176 7.628088 0.041470
V 5.648245 7.617269 0.043491
V 5.668722 1.814681 5.345910
V 5.665140 5.661073 5.259887
V 5.685828 3.770416 10.563137
F 7.555568 1.538808 4.551229
F 0.000627 0.226685 9.879371
F 0.000854 6.046069 4.484376
F 7.555809 3.617214 9.707610
F 1.266619 5.825393 7.052761
F 1.294176 3.358027 1.699067
F 1.295173 0.162538 1.858757
F 1.356981 1.540599 7.152411
F 1.463791 3.740862 5.443561
F 1.475246 5.690897 0.256256
F 2.303403 1.844230 10.348049
F 2.315599 7.587773 5.161368
F 2.423044 5.386213 3.453012
F 2.484722 4.010407 8.745451
F 2.485743 7.203244 8.906804
F 2.513155 1.978063 3.551312
F 3.778876 2.187981 6.120945
F 3.778536 4.062629 0.725787
F 3.777773 7.475218 0.898305
F 3.777584 5.396612 6.054417
F 5.044830 1.968389 3.552341
F 5.072288 7.193893 8.907191
F 5.073271 3.998974 8.746634
F 5.134564 5.376667 3.453040
F 5.240853 7.576962 5.161988
F 5.253638 1.833061 10.349318
F 6.081161 5.679989 0.257795
F 6.093756 3.729645 5.444265
F 6.200861 1.528625 7.152498
F 6.262306 0.152312 1.860574
F 6.264180 3.345638 1.699092
F 6.291275 5.814029 7.053904
