16

Li 1.571186 1.763343 4.883330
Li 1.574634 3.589252 2.423940
Li 4.720453 1.763343 4.883330
Li 4.717005 3.589252 2.423940
Si 0.000000 0.883130 2.469282
Si 3.145820 4.469465 0.009892
Ni 0.000000 4.414403 4.870320
Ni 3.145820 0.938192 2.410930
O 0.000000 0.888970 4.115922
O 0.000000 4.669266 1.936361
O 1.792406 3.680069 4.406759
O 1.353413 1.672525 1.947369
O 3.145820 0.683328 4.395751
O 3.145820 4.463625 1.656532
O 4.938226 1.672525 1.947369
O 4.499233 3.680069 4.406759
