40

Li 0.244438 0.163445 0.136667
Li 6.456162 4.155846 5.928243
Li 4.011079 5.722204 6.694436
Li 2.369160 7.496020 7.837165
Li 5.569351 4.740429 9.317155
Li 7.193328 8.347851 6.976661
Cr 1.211635 1.682294 1.930404
Cr 3.084118 4.189364 4.883798
Cr 5.550351 7.554888 8.875333
P 0.460448 5.940125 5.237892
P 3.807678 2.220155 7.356839
P 6.463713 6.449612 4.501181
P 2.225649 5.122671 9.262186
P 4.613095 9.488788 6.392940
P 8.212339 5.847898 8.345780
W 7.368217 9.988683 11.732539
O 1.086780 2.775449 4.774400
O 2.675827 5.106454 3.330981
O 0.434137 7.223746 4.339867
O 4.537249 3.037447 4.626814
O 2.065305 5.492434 5.439327
O 0.287418 6.271919 6.416663
O 2.197979 1.593989 7.778494
O 3.782665 3.584655 6.557818
O 5.119138 5.623838 5.189880
O 1.713361 3.703292 8.859886
O 0.939648 6.018533 8.882398
O 3.184374 1.531763 3.027106
O 5.152382 2.666790 8.351962
O 7.802165 5.619289 4.817130
O 6.969963 7.851913 4.955404
O 3.653811 5.914306 8.601664
O 4.700922 8.101841 7.186078
O 6.280706 9.953766 5.989147
O 8.314547 5.476574 7.164193
O 6.621950 6.389888 8.138073
O 4.123832 8.706458 9.162976
O 7.924448 4.579218 9.267056
O 6.000323 6.507093 10.404747
O 7.614486 8.923959 8.783548
