50

Na 0.783214 4.040364 1.639309
Na 0.783214 9.291742 1.657852
Na 2.406529 1.347248 0.130086
Na 2.406529 6.598625 3.167075
Na 6.656808 4.004453 3.274589
Na 6.659341 3.976666 0.020172
Na 6.659341 9.228043 3.276989
Na 6.656808 9.255830 0.022572
Na 8.353553 1.353788 4.886037
Na 8.353553 6.605165 5.005447
Fe 3.118315 4.158464 4.967021
Fe 3.118315 9.409841 4.924462
Fe 5.839984 1.228430 1.662013
Fe 5.839984 6.479807 1.635148
P 3.766165 3.715609 1.650981
P 3.766165 8.966987 1.646180
P 5.218811 1.557274 4.954657
P 5.218811 6.808651 4.936826
C 0.573509 3.847912 4.935105
C 0.573509 9.099289 4.956378
C 8.457508 1.515396 1.618286
C 8.457508 6.766773 1.678875
O 0.702554 1.555994 1.531287
O 0.702554 6.807371 1.765874
O 1.145531 5.018804 4.841545
O 1.145531 10.270181 5.049938
O 1.363449 2.822569 5.022255
O 1.363449 8.073946 4.869228
O 2.899748 4.052888 0.382273
O 2.912009 4.154201 2.892896
O 2.912009 9.405578 0.404265
O 2.899748 9.304265 2.914888
O 3.914268 0.725371 5.000178
O 3.914268 5.976748 4.891305
O 4.015997 2.198016 1.647301
O 4.015997 7.449393 1.649860
O 4.830954 3.083031 4.943546
O 4.830954 8.334408 4.947937
O 5.105371 4.487626 1.636223
O 5.105371 9.739004 1.660938
O 6.105566 1.236777 3.728430
O 6.135344 1.281482 6.177825
O 6.135344 6.532859 3.713658
O 6.105566 6.488154 6.163053
O 7.669957 2.567607 1.669788
O 7.669957 7.818984 1.627373
O 7.886388 0.329609 1.663622
O 7.886388 5.580986 1.633539
O 8.302832 3.813534 4.942266
O 8.302832 9.064911 4.949217
