15

Li 0.000000 0.000000 2.434729
Li 2.936865 1.496231 2.404115
Li 2.936865 4.023378 0.712464
Fe 0.000000 0.000000 0.000000
Co 0.000000 2.527146 -1.691652
Co 2.936865 1.496231 -0.030614
Co 2.936865 4.023378 -1.722266
O 1.446359 0.852078 3.689192
O 1.624298 3.290976 -0.639153
O 1.519334 3.364753 2.052292
O 4.297944 2.389389 3.623823
O 1.575787 5.657366 -2.198896
O 4.354396 4.682003 -0.627365
O 4.249433 4.755780 2.064081
O 4.427372 7.194678 -2.264265
