28

Li 1.971156 2.404383 8.716527
Li 5.837726 2.150299 9.565199
Li 5.840702 2.150058 4.813200
Li 3.914729 -0.257234 3.968179
Al 3.864947 2.279868 2.147443
Al 4.872349 0.917651 6.936781
Al 4.872320 -1.557945 6.913665
Cr 0.999832 3.713796 2.098402
Cr 0.999715 1.222697 2.075111
Cr 2.002090 -0.131478 6.867348
Sb 1.961530 2.404978 4.734206
Sb 3.926130 -0.257953 9.506601
O 0.915379 3.745934 5.776791
O 0.208354 2.520209 3.319083
O 2.073672 2.397611 1.120689
O 5.735257 2.156988 3.030763
O 5.753343 2.155832 7.764568
O 0.915373 1.201588 5.753062
O 2.850498 3.475454 3.361631
O 2.850468 1.217654 3.340500
O 1.910044 -0.125461 0.907387
O 3.911624 2.276849 5.848090
O 3.078630 0.940719 8.108780
O 3.078607 -1.345215 8.087434
O 4.020660 -0.264188 5.946294
O 4.853127 0.977662 1.037229
O 5.668233 -0.372441 8.142398
O 4.853086 -1.615383 1.013055
