22

Li 2.984368 5.803330 3.726128
Li 4.883023 1.836553 0.303023
Li 1.953208 1.922165 1.026985
Li 0.922054 3.978722 2.856728
Mn 0.991965 0.930467 3.641899
Mn 2.914451 2.913868 4.571873
Mn 4.883023 4.805415 -0.512438
Ni 3.927341 0.861479 2.889617
Ni 5.838711 2.811633 3.876230
Ni 1.953208 4.891026 0.211524
O 4.313426 1.570811 4.503974
O 1.573416 1.523203 5.267969
O 3.560592 0.299769 1.207586
O 5.452626 2.102301 2.261879
O 0.461944 0.439603 1.990392
O 2.333006 2.321132 2.945808
O 3.444478 3.404732 0.063575
O 5.459212 5.310557 1.110859
O 0.345830 3.544560 0.846389
O 2.399179 5.593187 1.944521
O 4.306834 4.300278 -2.135730
O 1.507243 4.188865 -1.521469
