38

Li 2.688047 5.400381 5.215598
Li 1.050085 4.533222 1.451138
Li 7.009326 -0.266465 5.412360
Li 5.371364 -1.133624 1.647899
Mn 5.115792 4.449272 7.665541
Mn 1.052148 2.297926 4.238513
Mn 7.007263 1.968831 2.624984
Mn 2.943619 -0.182515 -0.802044
S 1.986596 3.254338 6.920072
S 3.679709 4.150694 2.692231
S 7.562629 4.003754 4.936447
S 0.496782 0.263003 1.927051
S 4.379701 0.116064 4.171266
S 6.072814 1.012420 -0.056575
O 0.975866 6.642120 8.722980
O 0.428285 6.352223 4.806839
O 1.004146 3.361974 8.083513
O 3.063656 4.259694 6.808881
O 1.050931 3.624500 5.873265
O 3.980108 4.937487 3.677217
O 6.345118 4.197221 5.942399
O 2.773001 1.894204 6.774433
O 2.129869 3.765334 2.946464
O 3.675003 5.013718 1.515920
O 0.803781 1.263565 2.720931
O 3.235998 1.287039 4.366608
O 4.823412 2.979719 2.496889
O 7.255630 3.003192 4.142567
O 4.384408 -0.746961 5.347577
O 5.929542 0.501423 3.917033
O 5.286409 2.372553 0.089064
O 1.714293 0.069536 0.921099
O 4.079303 -0.670730 3.186280
O 7.008480 0.642257 0.990232
O 4.995755 0.007064 0.054616
O 7.055265 0.904783 -1.220016
O 7.631126 -2.085466 2.056659
O 7.083545 -2.375362 -1.859483
