28

Li 1.047310 10.419771 4.270699
Li 2.694581 5.190301 1.661294
Li 4.789201 10.419771 3.557517
Li 6.436471 5.190301 0.948112
V 0.881126 2.575702 1.428519
V 2.860765 7.805172 4.037924
V 4.623016 2.575702 1.180886
V 6.602656 7.805172 3.790292
F 0.467040 1.311907 0.164826
F 0.437502 3.979313 0.315816
F 1.022053 7.819856 3.257008
F 1.212343 1.245022 2.668263
F 1.390487 3.962945 2.553663
F 2.529548 6.474492 0.058858
F 2.351404 9.192415 5.163069
F 2.719838 2.590387 0.647602
F 3.274851 6.541377 2.774231
F 3.304389 9.208783 2.925222
F 4.208931 1.311907 2.444580
F 4.179393 3.979313 2.293589
F 4.763944 7.819856 4.571209
F 4.954234 1.245022 5.159953
F 5.132378 3.962945 0.055742
F 6.271439 6.474492 2.550548
F 6.093295 9.192415 2.665148
F 6.461729 2.590387 1.961803
F 7.016741 6.541377 5.053985
F 7.046280 9.208783 4.902995
