40

Li 2.135010 7.577162 7.854907
Li 6.658647 4.651151 6.426588
Li 6.671707 8.931815 6.329669
Li 6.676647 6.225910 9.499327
Mn 0.140381 7.655411 2.535465
Mn 4.180901 5.974848 7.012453
V 4.678849 3.631859 3.913811
Ni 0.547998 5.179053 6.512649
Ni 3.714674 8.435851 10.176796
Ni 7.981101 6.904169 7.604554
P 2.047722 3.016742 5.651121
P 2.059925 8.345232 5.235129
P 2.057188 5.278445 9.281004
P 6.321293 6.808261 4.775086
P 6.416097 3.711288 8.898698
P 6.241734 9.045382 8.435768
O 0.446693 1.051057 2.741429
O 0.449168 4.222141 2.278669
O 0.429736 2.678673 4.751546
O 1.962019 1.687241 6.491242
O 3.586768 3.341338 5.105374
O 2.329052 4.314750 6.224666
O 2.007171 8.115035 4.026983
O 2.358374 7.122922 6.131212
O 4.765950 7.127206 4.082319
O 2.356229 5.515530 8.063314
O 6.411292 5.312521 4.583686
O 4.955195 10.166174 10.875718
O 3.597717 1.993020 3.229020
O 1.937824 6.685109 9.503329
O 6.190674 6.554018 6.060992
O 3.599895 4.847730 2.881322
O 6.231395 5.100529 8.142907
O 6.419606 4.019147 10.137865
O 6.201149 7.811575 7.808195
O 4.584239 8.611505 8.761309
O 6.384148 10.326104 7.456499
O 7.740186 9.494293 9.383775
O 7.918143 7.811373 11.727391
O 8.098465 11.060939 11.509750
