34

Mn 1.248942 1.720090 2.021263
Mn 3.088589 4.253720 4.998508
Mn 5.583337 7.689580 9.035957
Cr 7.431111 10.234403 12.026357
P 0.298905 5.675501 5.270587
P 4.023091 2.377961 7.389644
P 6.497078 6.846968 4.849132
P 2.182127 5.069827 9.184152
P 4.613101 9.552292 6.633767
P 8.379875 6.277599 8.741155
O 1.239870 2.644752 4.891730
O 2.343372 5.019671 3.532346
O 0.502781 7.088707 4.555935
O 4.453797 3.404487 4.582903
O 1.905595 5.217503 5.535497
O 0.056798 5.777737 6.423315
O 2.425212 1.707456 7.830968
O 3.857444 3.654995 6.547838
O 4.958909 5.894168 5.268843
O 1.968988 3.676308 8.776120
O 0.648274 5.629773 8.639689
O 3.104740 8.912699 5.721699
O 5.530169 2.968060 8.330198
O 8.034380 6.301626 5.354374
O 6.767977 8.269894 5.241474
O 3.688911 6.070343 8.756978
O 4.854445 8.301258 7.485701
O 6.226031 10.182302 6.186398
O 8.564499 6.194067 7.574005
O 6.756739 6.700260 8.518678
O 4.212843 8.550460 9.421009
O 8.118958 4.837205 9.438697
O 6.287456 6.897441 10.492419
O 7.449056 9.272622 9.135439
