16

Li 0.000000 2.999754 0.625155
Li 2.999780 2.987035 -0.857719
Li 2.999780 -0.012718 -1.482874
Li 2.999780 2.987035 -2.972049
Ti 0.000000 0.000000 2.114330
Ti 0.000000 0.000000 0.000000
V 0.000000 2.999754 -1.489175
V 2.999780 -0.012718 0.631456
O 1.402793 4.587947 -2.960660
O 1.411289 1.392910 0.656767
O 1.405625 4.590767 -0.875810
O 4.600655 4.568725 -4.486509
O 1.398906 1.405345 2.771072
O 4.593936 1.383304 -0.839628
O 4.588272 4.581161 -2.372205
O 4.596768 1.386123 1.245223
