30

Li 0.000281 0.000717 0.000547
Li 5.191852 5.653673 3.994354
Li 5.196474 1.742182 7.296315
Li 0.000712 3.907156 4.135981
Li 0.002178 6.898280 3.544906
Li 0.004580 2.989305 6.845348
Cr 2.552957 5.781616 5.100010
Cr 2.646345 2.862014 5.739802
Fe 2.578148 3.797346 3.032753
Fe 2.687552 6.783637 2.458937
Fe 2.627568 0.918397 3.630640
Fe 2.572274 7.726061 7.210514
Fe 2.509654 1.860848 8.381170
Fe 2.619282 4.846158 7.806693
O 1.438103 0.399167 1.850949
O 1.433596 3.462524 1.203613
O 1.429811 5.345114 3.404739
O 1.524291 2.443805 4.048992
O 1.478728 7.282001 5.325543
O 1.402213 1.471580 6.539472
O 1.494094 4.272768 5.936512
O 3.719196 2.305616 2.734516
O 1.478650 6.338369 8.105255
O 3.703939 4.372778 4.902428
O 3.796865 7.172296 4.301437
O 3.719903 1.360459 5.515017
O 3.675244 6.198791 6.791630
O 3.768710 3.299509 7.435944
O 3.763689 5.182122 9.636023
O 3.760013 8.244610 8.990046
