34

V 1.224144 1.684048 1.978964
V 3.136018 4.314202 5.069720
V 5.586797 7.685725 9.031674
Cr 7.501373 10.319594 12.126796
P 0.281264 5.729452 5.343534
P 4.097121 2.386204 7.470809
P 6.553616 6.923435 4.858443
P 2.170388 5.107026 9.268258
P 4.660812 9.647458 6.655207
P 8.459556 6.280920 8.795729
O 1.214984 2.779854 4.845622
O 2.516303 5.015962 3.561417
O 0.543633 7.183693 4.637003
O 4.341118 3.309345 4.642894
O 1.890094 5.277637 5.464535
O 0.135961 5.813437 6.497135
O 2.475898 1.760258 7.934729
O 3.751066 3.575224 6.544810
O 5.033533 5.832252 5.247475
O 1.961448 3.676527 8.896182
O 0.701793 5.682230 8.790066
O 3.109868 9.038867 5.745631
O 5.565778 3.031924 8.348097
O 8.099570 6.352530 5.403521
O 6.741598 8.272864 5.270793
O 3.768582 6.115713 8.893231
O 4.861965 8.399037 7.573442
O 6.239498 10.292448 6.245084
O 8.699069 6.228444 7.619535
O 6.870120 6.809428 8.591866
O 4.327466 8.653242 9.516056
O 8.245713 4.917994 9.516315
O 6.317835 6.996098 10.574040
O 7.497352 9.309402 9.239504
