19

Li 3.664682 3.643174 1.422752
V 1.218452 1.211301 1.425786
V 4.930147 4.901212 4.275777
C 0.675195 4.258630 1.913964
C 1.891810 5.390296 4.806182
C 4.262655 0.650239 0.934506
C 5.401460 1.860170 3.748555
O 0.487551 1.911297 5.612048
O 0.746472 4.881976 5.029017
O 1.215501 5.419027 2.062571
O 1.480692 3.168467 2.034212
O 1.914183 0.476341 2.948755
O 3.018921 4.759747 5.111461
O 3.177186 1.462074 0.814605
O 4.153709 5.498292 2.554848
O 4.777496 2.990912 3.442652
O 4.886429 0.717865 3.527779
O 5.426233 1.183727 0.783786
O 5.522694 4.121320 0.287746
