28

Li 2.034945 2.561143 8.708884
Li 6.236480 2.216998 9.979354
Li 6.170243 2.196651 5.055393
Li 4.204173 -0.340715 3.971464
Mn 2.292009 2.527881 5.039977
Mn 4.200547 2.366800 2.074107
Mn 4.316819 -0.363244 9.918444
Mn 5.233874 0.917584 7.200652
Mn 5.243424 -1.790045 7.220447
Te 1.305272 3.995727 2.018745
Te 0.982745 1.343093 2.325013
Te 2.142870 -0.181854 7.112434
O 1.051079 4.141080 5.977482
O 0.214118 2.531844 3.559445
O 2.248616 2.643650 0.957526
O 6.025762 -3.097847 3.296475
O 0.254375 -0.032453 8.161297
O 1.050494 1.115098 6.058813
O 3.146660 3.671371 3.242611
O 3.092005 1.297182 3.365375
O 2.105218 -0.372649 0.881154
O 4.401464 2.341926 6.206416
O 3.167887 0.911059 8.231072
O 3.183726 -1.450553 8.206297
O 3.971976 -0.319545 5.982315
O 5.057974 1.114196 0.976208
O 5.971555 -0.485874 8.262612
O 5.121234 -1.929502 1.066979
