16

Li 0.000000 1.062317 3.257784
Li 1.977574 2.244346 6.456826
Li 2.037136 4.676602 3.218221
Li 4.014710 5.858630 0.019179
Li 5.992284 4.676602 3.218221
Li 6.051846 2.244346 6.456826
Sb 0.000000 5.718806 6.448244
Sb 4.014710 1.202141 3.209639
S 0.000000 1.023885 0.774240
S 0.000000 5.674229 4.076024
S 1.940125 4.601752 0.745158
S 2.074577 2.319196 3.983763
S 4.014710 1.246719 0.837419
S 4.014710 5.897062 4.012845
S 5.954835 2.319196 3.983763
S 6.089296 4.601752 0.745158
