28

Li 1.903625 2.317601 8.142899
Li 5.628257 2.049924 9.092453
Li 0.016126 0.002759 4.539527
Li 3.740759 -0.275105 3.590528
Co 0.940371 3.597886 1.914756
Co 1.849760 2.322615 4.396910
Co 0.941235 1.179076 1.916487
Co 3.710725 2.186367 1.951857
Co 1.933658 -0.141663 6.509232
Co 3.794623 -0.277990 8.954563
Co 4.704012 0.864088 6.472543
Co 4.703149 -1.554601 6.474274
O 0.897908 3.620418 5.490997
O 0.232487 2.440339 3.073306
O 1.865773 2.320354 0.966736
O 0.002190 -0.000096 2.811916
O 5.642193 2.045032 7.364844
O 0.900917 1.166373 5.496954
O 2.675404 3.341032 3.093680
O 2.676996 1.182786 3.093196
O 1.868624 -0.136935 0.948091
O 3.775759 2.181570 5.500741
O 2.968979 0.861364 7.651209
O 2.967388 -1.296644 7.650725
O 3.778610 -0.277896 5.524387
O 4.746475 0.880400 0.938775
O 5.411897 -0.397139 7.631199
O 4.743466 -1.573200 0.944732
