14

Li 0.697443 1.010673 1.203647
Li 5.073224 7.011251 8.299301
Mn 0.000000 2.568219 3.309202
Mn 2.885333 4.010962 4.751474
Cu 2.885333 1.442743 3.848135
Cu 2.885333 4.010962 2.345612
O 1.448397 2.110207 2.529647
O 1.439689 2.163612 4.692722
O 1.449609 4.421002 3.361305
O 4.070057 3.421815 3.839704
O 1.700610 4.600108 5.663245
O 4.330978 5.858312 4.810227
O 4.321064 3.600924 6.141646
O 4.322270 5.911717 6.973302
