76

Li 1.838520 6.341725 2.167428
Li 1.852067 6.834561 9.815611
Li 2.419802 1.881898 3.823124
Li 2.433777 2.368622 8.180804
Li 6.129452 6.241154 3.806931
Li 6.138289 6.723301 8.170468
Li 6.703951 1.783245 2.151921
Li 6.714390 2.272795 9.819072
Ti 6.453382 3.919364 7.332676
Mn 2.141188 8.460711 7.364346
Mn 2.124224 4.697833 4.633610
Mn 2.153965 0.263952 1.369448
Mn 2.156970 4.034023 10.641792
Mn 6.406729 4.590347 1.351058
Mn 6.417228 8.360283 10.623297
Mn 6.432042 0.151287 4.603155
P 0.315290 2.211711 5.989917
P 3.980085 6.504681 0.002120
P 4.574897 2.126025 11.969940
P 8.281438 6.407815 5.982482
P 0.909716 3.454880 1.782892
P 0.902215 0.910323 10.266276
P 3.363771 5.264285 7.769719
P 3.390746 7.816337 4.225575
P 5.182673 0.779189 7.723848
P 5.173245 3.349661 4.184613
P 7.662666 5.145158 10.226465
P 7.665535 7.713927 1.751089
O 0.513812 5.663778 5.092967
O 0.522452 7.547991 6.913915
O 0.649060 7.898348 1.910853
O 0.651706 5.291516 10.125887
O 1.205448 1.479228 6.982261
O 1.226291 2.991618 4.983719
O 1.332373 3.841730 0.353224
O 1.310853 0.553059 11.685580
O 1.350510 2.051345 2.182985
O 1.371053 2.344231 9.864192
O 1.542429 4.533350 2.722318
O 1.500717 8.680939 9.327735
O 2.790539 0.050700 3.247648
O 2.742302 4.181384 8.712392
O 2.929658 6.662549 8.183440
O 2.922259 6.382509 3.832591
O 2.942862 4.886999 6.335009
O 2.956255 8.216128 5.620239
O 3.061112 7.267677 0.965507
O 3.050442 5.735580 10.982871
O 3.632426 0.810931 7.862027
O 3.626312 3.410882 4.101298
O 3.779063 1.185122 0.884578
O 3.766801 3.087102 11.071285
O 4.778891 5.549037 0.909991
O 4.786872 7.441805 11.090301
O 4.916708 5.155886 7.849304
O 4.940017 7.789300 4.080453
O 5.498666 2.888977 0.999146
O 5.480931 1.372677 10.992410
O 5.598676 0.398880 6.311725
O 5.633460 3.714380 5.625251
O 5.624151 1.948337 3.794948
O 5.656247 2.218718 8.088489
O 5.806446 4.432569 3.260632
O 5.795279 8.560154 8.698420
O 7.063710 -0.050548 2.699418
O 7.054351 4.077892 9.260977
O 7.192630 6.283777 2.145373
O 7.221711 6.543231 9.806250
O 7.236474 4.777646 11.656363
O 7.235960 8.103821 0.347629
O 7.341699 5.604503 6.958407
O 7.347316 7.153953 5.028709
O 7.912225 0.731901 10.110494
O 7.922535 3.305040 1.877587
O 8.069917 1.054558 5.078454
O 7.993490 2.980702 6.779819
