26

Na 1.435684 6.824788 6.434701
Na 1.435642 3.472126 6.434661
Na 3.800921 3.392466 1.849259
Na 3.800905 0.039818 1.849244
Li 4.560190 1.716162 7.309771
Li 0.676368 5.148430 0.974194
Mn 4.136769 5.148461 5.247157
Mn 1.099825 1.716152 3.036770
P 3.726902 1.716149 4.855898
P 1.509703 5.148464 3.428001
C 3.958924 5.148440 7.926449
C 1.277681 1.716151 0.357732
O 1.386392 1.716172 7.866254
O 5.166995 5.148460 7.356479
O 2.923740 5.148441 7.192884
O 4.186480 0.479303 5.671366
O 4.186454 2.952993 5.671384
O 0.907538 5.148478 4.881391
O 2.167288 1.716130 4.803955
O 3.069343 5.148476 3.480003
O 4.329083 1.716176 3.402621
O 1.050151 3.911605 2.612638
O 1.050114 6.385275 2.612595
O 2.312740 1.716123 1.091080
O 0.069579 1.716166 0.927458
O 3.850223 5.148413 0.417599
