18

Li 0.000000 0.000000 0.000000
Cu 0.000000 0.000000 2.983814
Cu 0.000000 0.000000 6.124315
Cu 2.364807 2.402955 1.489653
Cu 2.364807 2.402955 4.554064
Cu 2.364807 2.402955 7.618476
F 0.906454 3.837397 4.554064
F 0.936870 3.807479 1.557699
F 0.936870 3.807479 7.550429
F 1.456664 1.480163 3.025010
F 1.456664 1.480163 6.083119
F 1.466308 1.489962 0.000000
F 3.263306 3.315948 0.000000
F 3.272950 3.325748 3.025010
F 3.272950 3.325748 6.083119
F 3.792744 0.998431 1.557699
F 3.792744 0.998431 7.550429
F 3.823160 0.968514 4.554064
