15

Li 0.048376 4.443677 2.533236
Li 3.185355 0.964572 0.013895
Li 4.869630 3.509543 4.975146
Si 1.632345 3.597377 0.051184
Si 4.823833 1.705449 2.563086
Ni 0.097234 0.937226 0.016080
Ni 3.247395 4.433788 2.514205
O 0.245622 4.318637 4.499836
O 1.716582 3.875654 1.688579
O 1.647427 2.026152 4.666340
O 3.007297 4.340838 4.397840
O 3.505302 0.850893 2.016830
O 4.702715 3.299739 2.046306
O 4.845882 1.704394 4.206577
O 6.125934 0.962716 1.953611
