32

Li 3.885538 4.631092 2.402087
Li 1.911056 11.218746 1.063861
Mn 4.223016 1.540527 2.047245
Mn 4.312771 6.308666 0.097825
Mn 4.408316 10.811846 -1.911522
Mn 1.573578 0.435454 3.058195
Mn 1.388279 5.037992 0.768101
Mn 1.483824 9.541158 -1.241244
B 4.367693 -1.543755 2.149926
B 4.309658 3.172654 -0.017158
B 4.290981 7.609626 -2.071625
B 1.428901 3.519722 2.955516
B 1.505613 8.240212 0.928204
B 1.486937 12.677170 -1.126262
O 5.152251 -1.677183 1.087990
O 4.791140 3.094593 -1.178602
O 4.169345 2.022236 0.474268
O 4.181043 6.442749 -1.587431
O 3.752802 -0.196267 2.617241
O 3.876542 4.473405 0.597186
O 3.645965 8.923514 -1.610705
O 5.047831 7.512112 1.468523
O 1.627249 -0.046269 0.021805
O 4.074849 11.232302 0.990966
O 0.644344 3.653149 -0.591918
O 2.043792 2.172247 2.488199
O 2.150629 6.926310 0.467286
O 1.920052 11.376419 -1.740610
O 1.721745 4.617522 2.474979
O 1.615551 9.407075 0.444012
O 0.748763 8.337712 1.997427
O 1.005454 12.755245 0.035181
