26

Li 0.703035 1.612214 3.719247
Li 1.946368 6.384399 1.306739
Li 1.946368 3.288884 1.306739
Li 6.474218 3.159972 4.019441
Li 6.474218 0.064456 4.019441
Li 7.717551 4.836642 1.606933
Fe 2.800788 4.836642 4.028347
Fe 5.619798 1.612214 1.297833
B 0.363331 4.836642 3.664917
B 8.057254 1.612214 1.661263
P 3.531391 1.612214 3.735893
P 4.889194 4.836642 1.590287
O 0.936689 1.612214 1.704771
O 0.833815 4.836642 4.970089
O 1.401076 4.836642 2.675130
O 2.642952 0.400100 4.149455
O 2.642952 2.824328 4.149455
O 3.810736 1.612214 2.198800
O 3.515190 4.836642 0.907791
O 4.905395 1.612214 4.418389
O 4.609849 4.836642 3.127380
O 5.777633 3.624528 1.176725
O 5.777633 6.048756 1.176725
O 7.019509 1.612214 2.651050
O 7.586771 1.612214 0.356090
O 7.483896 4.836642 3.621409
