56

V 2.202133 3.479055 2.558695
V 2.400477 8.282104 0.435474
V 6.499475 3.776514 4.687496
V 6.697819 7.984645 2.564274
V 11.102085 1.026536 2.575785
V 11.300429 5.234667 0.452563
V 15.399427 0.729077 4.704585
V 15.597771 5.532126 2.581364
P 0.579227 2.093685 0.005524
P 3.513078 5.243237 5.110324
P 5.386874 0.737646 0.012646
P 8.320725 6.599275 5.117446
P 9.479179 2.411906 0.022613
P 12.413030 8.273535 5.127413
P 14.286826 3.767944 0.029736
P 17.220677 6.917496 5.134535
O 0.939105 7.164060 5.051948
O 0.929102 2.902006 1.266551
O 0.908027 2.912008 3.845231
O 1.332519 0.752244 5.058141
O 2.347718 8.273075 2.033605
O 2.791310 4.733258 1.266727
O 2.805194 4.720210 3.852989
O 3.311174 2.332364 2.557562
O 3.498411 6.784014 5.091490
O 3.908414 0.312282 5.091701
O 4.991538 4.817873 0.031269
O 5.401541 2.278423 0.031479
O 5.588778 6.837954 2.565408
O 6.108642 0.227667 3.856243
O 6.094758 0.214619 1.269981
O 6.552234 3.767485 3.089365
O 7.567433 5.257835 0.064829
O 7.991925 7.417599 1.277739
O 7.970850 7.407596 3.856418
O 7.960847 2.658470 0.071022
O 9.839057 6.352711 5.069037
O 9.829054 1.603585 1.283641
O 9.807978 1.593582 3.862320
O 10.232471 3.753346 5.075230
O 11.247670 5.243696 2.050695
O 11.691262 8.783514 1.283816
O 11.705146 8.796562 3.870078
O 12.211126 2.173227 2.574651
O 12.398363 6.732758 5.108580
O 12.808366 4.193308 5.108790
O 13.891490 8.698899 0.048358
O 14.301493 2.227167 0.048569
O 14.488730 6.678817 2.582497
O 14.994710 4.290971 1.287070
O 15.008594 4.277923 3.873332
O 15.452186 0.738106 3.106454
O 16.467385 8.258937 0.081918
O 16.891877 6.099173 1.294828
O 16.870802 6.109175 3.873508
O 16.860799 1.847121 0.088111
