28

Li 0.768367 1.818946 8.161430
Li 0.768367 0.813873 2.910502
Li 5.818012 4.451764 6.067894
Li 5.818012 3.446691 0.816966
Co 3.359976 0.776829 8.107214
Co 3.226404 3.409647 6.122110
Co 3.359976 1.855990 2.856286
Co 3.226404 4.488808 0.871182
C 1.351453 4.306728 9.416743
C 1.351453 3.591728 4.165814
C 5.234927 1.673909 4.812582
C 5.234927 0.958909 -0.438347
O 0.523887 3.707409 8.746517
O 0.523887 4.191047 3.495588
O 1.687470 0.306729 9.176294
O 1.687470 2.326090 3.925366
O 1.901718 4.197055 5.124637
O 2.548494 1.944563 7.079093
O 1.901718 3.701400 -0.126291
O 2.548494 0.688256 1.828164
O 4.037885 4.577381 7.150232
O 4.684661 1.564236 9.104687
O 4.037885 3.321074 1.899303
O 4.684661 1.068582 3.853759
O 4.898909 2.939547 5.053030
O 4.898909 4.958908 -0.197898
O 6.062492 1.074590 5.482808
O 6.062492 1.558228 0.231879
