88

Li 1.875030 8.914129 2.715091
Li 0.659675 0.948307 6.610058
Li 2.839942 6.263883 2.668315
Li 2.364279 7.078098 -1.763823
Li 3.173566 5.394129 0.535945
Li 3.673885 1.113739 4.336429
Li 6.389040 5.815081 2.699867
Li 2.708829 -0.498238 2.822250
Li 5.290999 5.746490 -1.956335
Li 5.840231 1.056434 2.168642
Li 6.739792 3.306967 -2.386716
Li 4.755621 1.013539 -2.495731
Li 7.525892 5.807246 -4.287091
Li 7.858769 1.484097 -0.421632
Li 8.940417 -0.310097 2.036962
Li 9.948149 -1.377173 4.278291
Li 10.824290 2.562047 0.297751
Li 8.308762 0.601255 -2.489159
Li 10.343627 5.935636 -6.415388
Li 9.146569 -2.252685 -2.372225
La 2.775516 8.408981 0.188954
La 1.454851 3.493081 4.387809
La 1.459273 2.243075 1.631686
La 6.960812 6.883036 -0.099637
La 2.701891 3.109239 -1.676131
La 4.016196 6.559134 -4.206644
La 4.118131 -0.087295 0.248078
La 7.032678 0.308314 4.415218
La 8.362998 3.750394 1.921397
La 9.623512 4.763624 -1.517743
La 8.363777 -1.487566 0.033454
La 9.834977 3.361218 -4.251659
Nb 11.112197 1.583166 -1.760166
Nb 11.073063 -3.660824 0.916647
Nb 11.119815 1.611864 -6.274300
Nb 5.566500 3.388505 0.172527
Nb 5.647799 -1.862961 2.723237
Nb 0.025659 10.461171 -5.214787
Nb 5.552936 3.436282 4.634586
Nb 5.608831 -1.858679 -1.839951
O 0.903593 9.941300 0.720608
O 1.284481 5.689693 4.796775
O 0.323267 3.303597 6.518802
O 0.882154 7.065992 2.233011
O 0.961370 8.996315 -1.215348
O 1.100836 6.238877 0.234801
O 1.946606 4.474714 2.207981
O 4.639042 7.168867 1.406368
O 3.373916 2.274615 5.524659
O 4.311933 4.800242 3.825966
O 0.202500 1.951915 -0.040412
O 3.634350 8.553957 -3.191110
O 1.913107 1.373765 3.605797
O 2.284106 5.480446 -2.290819
O 4.555483 7.139047 -1.075673
O 3.646032 8.338358 -5.800865
O 3.373616 3.878418 -0.063434
O 1.274681 -0.115863 1.319419
O 5.947088 4.559037 1.191241
O 4.632337 -0.599277 6.116724
O 5.861858 2.291013 3.510355
O 4.272831 1.665946 1.331292
O 2.206472 0.409944 -1.110400
O 6.399731 7.371571 -3.414308
O 4.630411 -0.512120 3.605393
O 8.974150 6.318584 1.407748
O 6.819965 5.026215 -1.144452
O 5.353153 4.486297 -3.249831
O 5.243779 2.251771 -1.006505
O 6.614436 7.473977 -5.962295
O 9.861650 7.103296 -1.012978
O 7.559135 -1.571568 5.953236
O 7.790791 2.915846 0.289502
O 6.693329 -0.322625 1.301542
O 8.962768 1.422326 2.378869
O 7.522528 -1.543259 3.503511
O 10.826973 4.819954 0.207555
O 9.193689 5.311808 -3.495334
O 6.843798 2.163333 -3.554265
O 7.728269 4.581690 -5.393540
O 6.491420 -0.317406 -1.226937
O 9.106778 2.416280 -2.066805
O 10.071801 0.766913 -0.034830
O 10.266583 -2.099118 1.394936
O 10.131315 -0.235207 -1.911262
O 9.831870 1.040679 -4.651480
O 10.827007 3.488633 -6.278540
O 10.057958 -3.116588 -0.463582
