47

Li 7.356560 6.486867 11.994352
Li 4.405308 3.924352 10.163851
Li 1.451660 1.313278 8.377149
Sb 3.338279 5.503343 16.895232
Sb 7.723236 2.719691 12.066586
Sb 1.001982 8.635217 16.094791
Sb 4.094095 7.825221 10.105571
Sb 8.377407 4.953342 4.982117
Sb 1.636563 6.138972 12.290602
Sb 6.335668 -0.644970 14.812203
Sb 4.115179 2.589315 14.071079
Sb 4.703932 5.463350 6.153426
Sb 2.560831 8.492570 5.341912
Sb 7.019905 1.657465 8.011013
Sb 0.367817 2.921228 15.238019
Sb 4.839462 -0.114020 10.099055
Sb 7.649535 -0.804602 4.072423
Sb 1.146671 5.253823 8.327620
Sb 5.486799 2.386602 3.237474
Sb 1.808506 2.810567 4.412599
S 7.454793 7.842917 16.617470
S 7.917289 5.028033 13.674479
S 6.888105 7.904490 10.204396
S 3.882777 8.167346 17.478093
S 7.352308 5.315723 7.241285
S 7.246507 3.883037 10.171390
S 4.622796 6.539093 11.870215
S 4.387884 5.121051 14.763357
S 6.754547 1.991945 15.466966
S 7.982742 2.202112 4.542972
S 1.400413 7.498975 10.523916
S 4.962165 2.546255 11.854138
S 3.896383 5.343477 8.471225
S 7.450841 0.243491 9.678117
S 0.893530 5.593492 15.792923
S 5.968718 5.082133 3.676176
S 2.148353 5.771518 4.966199
S 4.346582 2.672362 5.441031
S 4.305369 1.322953 8.461189
S 1.594917 3.886537 10.038599
S 1.510943 2.545777 13.033325
S 5.017045 -0.486582 2.796034
S 1.924561 -0.145689 10.003914
S 0.957489 2.718948 6.670172
S 2.965582 2.559388 1.825157
S 1.434492 0.097020 3.651224
S 0.052237 8.758209 3.911147
