34

Li 1.156826 3.708572 4.326488
Li 1.229715 1.610181 4.320906
Li 2.110245 2.730033 2.104105
Li 3.699489 2.786520 4.362388
Li 4.791494 4.337321 9.124666
Li 2.455509 5.264737 9.160807
Li 4.035073 5.461441 6.937357
Li 4.820593 6.523567 9.195465
Li 0.135364 5.137856 0.078986
Li 0.075395 0.060526 5.021603
Fe 2.110849 5.274052 2.084381
Fe 5.024901 4.221858 2.100388
Fe 1.093504 1.435772 6.933905
Co 4.033112 5.427036 4.557764
Co 2.075050 2.744403 9.370077
Ni 1.070424 3.927928 6.886299
Ni 3.977047 2.871050 6.910536
Ni 5.021411 6.728148 2.063739
O 0.061136 0.079186 7.923365
O 0.104381 0.056570 3.145403
O 0.239591 2.593134 8.182653
O 1.120737 1.398148 0.910720
O 2.939034 1.600409 8.193007
O 2.031023 2.718308 5.769438
O 1.164847 3.936944 0.842526
O 2.923625 3.944461 8.156552
O 2.102283 5.340437 5.684864
O 4.037763 2.894473 0.844943
O 3.122992 4.157516 3.341105
O 3.105499 6.508108 3.310770
O 4.033290 5.374675 0.927379
O 5.028437 4.283478 5.731474
O 5.830758 5.508571 3.353017
O 4.983320 6.736326 5.646135
