15

Li 2.930084 3.916776 4.731129
Li 0.000000 2.505635 3.224646
Li 0.000000 0.000000 2.422892
Ti 0.000000 0.000000 0.000000
Ni 2.930084 3.916776 2.308237
Ni 0.000000 2.505635 0.801754
Ni 2.930084 1.411142 1.506483
O 4.556837 5.899685 4.614703
O 1.443617 4.523762 3.060953
O 4.556837 3.491921 3.844266
O 1.400392 2.069202 2.156682
O 4.459775 5.764351 7.305577
O 1.303330 4.341632 5.617992
O 4.416550 3.309790 6.401305
O 1.303330 1.933867 4.847555
