28

Li 1.600280 1.458124 2.259491
Li 1.600280 5.975629 0.197765
Li 4.800839 3.059381 4.716748
Li 4.800839 7.576886 2.655021
Mn 0.000000 0.000000 0.000000
Mn 0.000000 4.517505 2.457256
Mn 3.200560 0.000000 0.000000
Mn 3.200560 4.517505 2.457256
Si 1.600280 2.896940 4.739644
Si 1.600280 7.414445 2.632125
Si 4.800839 1.620565 2.282388
Si 4.800839 6.138070 0.174868
O 0.244190 3.447742 4.004384
O 0.244190 7.965247 3.367385
O 1.600280 1.230677 4.428335
O 1.600280 3.324649 1.408991
O 1.600280 7.842154 1.048266
O 1.600280 5.748182 2.943434
O 2.956370 3.447742 4.004384
O 2.956370 7.965247 3.367385
O 3.444749 1.069763 1.547128
O 3.444749 5.587268 0.910128
O 4.800839 1.192856 3.866247
O 4.800839 3.286819 1.971078
O 4.800839 5.710361 3.505522
O 4.800839 7.804333 0.486178
O 6.156929 1.069763 1.547128
O 6.156929 5.587268 0.910128
