28

Li 1.953169 2.345935 9.123109
Li 5.825201 2.138242 10.363354
Li 0.004937 0.009731 4.623541
Li 4.142213 -0.205107 4.496450
Co 3.886865 2.258038 2.730249
Co 4.908551 0.945273 7.545692
Co 4.923403 -1.507904 7.382956
Cu 0.966711 3.663293 2.372303
Cu 0.938710 1.220556 2.216369
Cu 1.980606 -0.111406 7.068644
Te 2.082425 2.407512 5.094627
Te 3.864092 -0.268454 9.889574
O 1.003760 3.737539 6.022785
O 0.367170 2.547224 3.619810
O 2.064653 2.381998 1.598407
O 5.825599 2.136231 3.700576
O 5.857776 2.172951 8.564185
O 0.952663 1.230529 5.835560
O 3.184560 3.414659 4.037322
O 3.067407 1.222785 3.886999
O 1.824621 -0.159468 1.017883
O 4.022432 2.266269 6.435877
O 3.109517 0.932856 8.550796
O 3.186683 -1.409762 8.435699
O 4.027517 -0.239840 6.439855
O 4.744442 0.932564 1.516960
O 5.689367 -0.322747 8.705819
O 4.810622 -1.522160 1.392136
