14

Li 0.934894 4.995567 6.578871
Li 2.865308 4.033423 5.011724
Li 0.934377 2.548540 3.401011
Li 2.865633 1.586357 1.833837
V 0.932917 5.794795 3.454692
V 2.863825 0.787511 4.957457
O 2.864555 6.186667 3.240483
O 0.934736 4.546639 4.637620
O 2.865571 2.035100 3.775221
O 0.933678 0.395105 5.171885
F 2.865165 5.571360 6.429856
F 2.860543 2.497270 6.138034
F 0.929874 4.084469 2.274503
F 0.934238 1.010419 1.982673
