48

Li 5.252402 -2.612889 4.650441
Li 5.284915 2.241950 -0.223937
Li 5.274847 -0.219640 -2.650970
Li 3.797879 0.534683 2.986522
Li 2.221759 6.172972 3.705013
Li 0.753697 6.919911 -0.351911
Li 0.701439 4.477102 6.979719
Li 0.753691 9.322450 2.057724
Mn 3.713968 7.868260 0.616190
Mn 5.306428 4.608540 2.210325
Mn 2.202609 1.299042 -1.097162
Mn 3.802714 2.975521 5.430867
Mn 2.197239 3.768059 1.277295
Mn 3.836033 5.434623 7.791686
Mn 0.718003 2.125350 4.500874
Mn 2.296697 -1.146377 6.093831
F 5.692918 -1.899446 0.472017
F 5.436902 -1.108586 3.110372
F 5.393190 0.737008 1.291466
F 3.662527 -0.271114 -0.866340
F 5.193781 3.875499 -1.646225
F 2.913118 -0.608244 1.973439
F 3.078529 2.375040 0.003059
F 4.167589 3.641270 1.254920
F 4.568362 6.605208 -0.787957
F 5.722075 2.888272 5.420133
F 4.209394 -1.144473 6.009886
F 4.573480 1.614645 4.179221
F 0.822380 1.041564 0.467377
F 3.926061 6.265818 2.064180
F 2.392107 5.185181 -0.359352
F 3.915061 4.454735 3.856591
F 2.105479 2.281587 2.853469
F 3.651624 1.552586 7.062090
F 2.103332 0.473717 4.657037
F 5.225392 5.689813 6.233030
F 1.435157 5.123210 2.530932
F 1.810250 7.839803 0.697428
F 0.275977 3.859305 1.296232
F 1.475447 0.132316 7.482561
F 1.834457 3.106977 5.449505
F 2.924606 4.364214 6.709655
F 3.071582 7.313913 4.754279
F 0.834523 2.856406 8.348561
F 2.380331 7.015575 7.583010
F 0.618063 5.992931 5.414065
F 0.588660 7.854797 3.606884
F 0.304148 8.645745 6.256519
