34

Co 3.088884 4.216333 4.954350
Co 1.199386 1.637165 1.923730
Co 5.487656 7.490662 8.801811
Co 7.377153 10.069830 11.832431
S 0.349614 5.753514 5.250171
S 4.637884 9.443901 6.433005
S 2.144135 5.089858 9.134288
S 6.432405 6.617136 4.621874
S 3.938656 2.263093 7.323157
S 8.226925 5.953481 8.505991
O 0.500252 7.025447 4.440489
O 0.764195 5.762802 8.776139
O 4.238071 8.692680 9.176398
O 5.274580 2.668118 8.284145
O 1.917020 5.336461 5.509145
O 4.788522 8.159270 7.185198
O 6.205289 10.093160 6.040540
O 8.526341 5.696886 7.427254
O 2.611711 5.062802 3.356869
O 0.986311 2.756209 4.792935
O 1.676559 3.698399 8.761566
O 3.524074 5.907167 8.582000
O 5.052465 5.799827 5.174162
O 7.590229 8.950786 8.963227
O 6.899980 8.008595 4.994595
O 0.050198 6.010109 6.328908
O 5.964829 6.644192 10.399293
O 2.371250 1.613834 7.715622
O 3.788017 3.547724 6.570964
O 6.659520 6.370533 8.247017
O 4.338468 3.014314 4.579764
O 3.301959 9.038876 5.472017
O 7.812344 5.944192 4.980023
O 8.076287 4.681548 9.315673
