22

Li 1.530734 0.737567 8.326159
Li 1.292058 0.954358 4.988989
Li 0.968146 2.669121 6.668309
Li 1.055956 3.269234 4.101064
Li 1.534928 2.963070 0.412212
Li 3.707814 4.149791 4.872131
Li 4.186786 3.843627 8.560982
Li 4.274597 4.443740 2.208391
Li 3.950684 6.158503 0.529071
Li 3.712008 6.375294 3.866241
V 1.231814 5.097844 2.059082
V 4.010929 2.015017 6.519000
O 0.527866 1.392923 1.024925
O 0.285971 0.933793 6.749631
O 2.641236 2.536354 5.252767
O 2.933036 2.210630 8.065369
O 2.309706 4.902231 3.605451
O 2.601506 4.576507 0.792849
O 4.956772 6.179068 2.289713
O 4.714877 5.719938 5.484843
F 0.009232 1.569747 3.724718
F 5.233510 5.543114 8.184637
