12

Li 1.853092 2.341377 1.578453
Li 3.249723 4.106015 4.735360
Fe 0.000000 0.000000 0.000000
Fe 0.000000 0.000000 3.156907
F 1.051348 4.055039 1.578453
F 1.179439 4.216882 4.735360
F 1.147021 1.449258 0.116515
F 1.147021 1.449258 3.040392
F 3.955794 4.998135 3.273422
F 3.955794 4.998135 6.197299
F 3.923376 2.230511 1.578453
F 4.051467 2.392353 4.735360
