14

Li 0.000000 0.000000 2.444649
Li 0.000000 2.533158 -0.808547
Li 2.994644 1.597186 1.529000
Li 2.994644 1.597186 3.973648
Li 2.994644 4.130344 3.165101
V 0.000000 0.000000 0.000000
F 0.000000 1.184895 0.765293
F 0.054874 1.190634 3.381044
F 5.934415 7.070055 2.949158
F 5.989288 7.075794 5.564909
F 3.188535 2.861964 2.422884
F 2.994644 2.757646 4.723159
F 2.994644 5.503043 1.607043
F 2.800753 5.398724 3.907318
