72

Li 4.623360 11.317427 3.761672
Li 1.034717 6.862834 3.896768
Li 1.994425 8.390523 1.085618
Li 7.574173 12.923212 3.733569
Li 5.597042 9.978531 1.176862
Li 11.176790 14.511220 3.642325
Li 4.623360 5.782335 3.908447
Li 1.034717 1.327742 3.773351
Li 12.136497 16.038909 1.340062
Li 8.547855 11.584316 1.204966
Li 1.994425 2.855431 1.471088
Li 7.574173 7.388120 3.936551
Li 5.597042 4.443439 1.379844
Li 11.176790 8.976128 4.027794
Li 12.136497 10.503817 1.216645
Li 8.547855 6.049224 1.351741
Cr 0.799453 9.330882 3.709525
Cr 5.775538 12.405548 1.374664
Cr 0.799453 3.795790 3.960594
Cr 7.395676 10.496196 3.931371
Cr 5.775538 6.870456 1.182042
Cr 12.371761 13.570862 1.152819
Cr 7.395676 4.961104 3.738749
Cr 12.371761 8.035770 1.403888
P 2.140230 11.095239 1.146852
P 8.732739 14.410334 1.155304
P 2.140230 5.560147 1.409855
P 4.438475 8.491409 3.712011
P 8.732739 8.875242 1.401402
P 11.030984 11.806504 3.703558
P 4.438475 2.956317 3.958109
P 11.030984 6.271412 3.966561
O 1.793840 10.941206 4.737444
O 13.106530 14.957300 0.201474
O 1.600184 9.990302 1.924397
O 5.116319 13.040464 3.160529
O 3.894280 11.274905 1.377236
O 1.336457 6.620476 0.819424
O 2.713099 8.468588 4.087187
O 8.479180 14.591769 4.740758
O 6.489615 11.754945 4.873083
O 1.793840 5.406114 2.932675
O 13.106530 9.422208 2.355233
O 7.947590 13.226728 1.622803
O 5.223625 9.675015 4.179509
O 1.600184 4.455210 0.632309
O 6.681599 11.146799 2.316376
O 4.692034 8.309975 2.184051
O 5.116319 7.505372 4.509590
O 3.894280 5.739814 1.179470
O 10.458115 14.433156 1.530480
O 11.834758 16.281268 3.376131
O 1.336457 1.085384 1.737282
O 2.713099 2.933496 3.582933
O 9.276934 11.626838 3.933943
O 8.054896 9.861280 0.603822
O 8.479180 9.056677 2.929362
O 6.489615 6.219853 2.797037
O 11.571030 12.911441 4.481104
O 7.947590 7.691636 0.933904
O 5.223625 4.139923 3.490610
O 0.064684 7.944443 2.758180
O 11.377374 11.960538 2.180738
O 6.681599 5.611707 0.240330
O 4.692034 2.774883 0.372655
O 10.458115 8.898064 1.026226
O 11.834758 10.746176 4.293989
O 9.276934 6.091746 3.736177
O 8.054896 4.326188 1.952884
O 11.571030 7.376349 3.189016
O 0.064684 2.409351 4.911939
O 11.377374 6.425446 0.375969
