26

Li 2.986870 2.409889 -0.118980
Li 6.952815 2.498367 1.998312
Mn 0.113596 4.796738 1.741867
Mn 3.771681 1.876506 5.380198
Mn 4.236962 4.502789 1.467951
Mn 7.825477 2.463598 5.116513
P 1.958616 0.137443 7.345369
P 1.873511 2.438313 2.791189
P 6.281529 0.263595 3.656270
P 5.969175 2.499162 -0.789123
O 0.690662 0.903738 8.070218
O 0.497139 3.213493 3.016817
O 1.608042 3.542079 7.451084
O 1.600722 0.956549 2.493063
O 2.258109 0.766929 6.031099
O 2.760918 2.615593 4.023147
O 2.721981 3.057962 1.654232
O 3.178565 0.398460 -0.253108
O 4.579652 2.596797 6.958954
O 5.295392 0.657944 4.801266
O 5.639861 0.486836 2.330158
O 5.694711 3.184287 0.554179
O 6.720299 3.661327 3.996950
O 6.401157 1.050185 -0.623621
O 7.557052 1.202877 3.646202
O 7.117339 3.266782 -1.585588
