15

Li 0.043519 4.404124 2.566541
Li 3.340088 1.014576 0.033229
Li 5.049508 3.523977 5.046797
Fe 0.127574 0.973426 0.028845
Fe 3.316842 4.425521 2.557827
Si 1.677401 3.613089 0.047547
Si 4.994230 1.712145 2.593625
O 0.274404 4.300182 4.526568
O 1.745700 3.924776 1.674755
O 1.766231 2.033098 4.755298
O 3.056255 4.377523 4.456243
O 3.692313 0.860737 2.008260
O 4.975405 1.707022 4.243401
O 4.845693 3.311882 2.071423
O 6.330960 1.004384 2.009346
