30

Li 4.660566 4.128718 1.950674
Li 5.843112 9.280175 2.845112
Mn 1.298661 9.597608 2.693805
Mn 2.202558 4.446140 3.615885
Mn 4.773417 5.892000 -0.431184
Mn 5.730260 0.740543 0.515876
P 0.210102 3.576451 1.007440
P 3.691405 1.553690 2.612595
P 3.291124 8.727908 0.591155
P 6.812272 6.705147 2.183192
O 0.152387 8.076083 3.145007
O 6.961942 9.835110 -0.231844
O 1.152470 5.933366 4.168697
O 1.123039 4.390669 2.002722
O 1.023345 3.261923 -0.168229
O 2.348755 0.781909 2.140992
O 2.477880 8.413380 1.766825
O 3.348838 2.924626 3.164682
O 2.378187 9.542126 -0.404127
O 3.499349 5.579852 2.866163
O 3.541735 4.683653 0.316537
O 4.627794 0.695663 3.562141
O 3.752936 7.435016 -0.009876
O 4.530152 1.925110 1.444786
O 4.621128 9.554984 1.090644
O 5.973525 7.076567 3.351000
O 5.875883 5.847120 1.233646
O 5.882549 4.403527 -1.005951
O 0.001877 0.428395 3.443526
O 6.750741 2.283558 0.094569
