28

Li 5.159767 0.000000 20.400188
Li 1.290207 0.000000 5.116922
Li 2.581478 0.000000 10.301346
Li 3.870622 0.000000 15.350767
Fe 3.233074 0.000000 3.154869
Fe 3.870622 1.465535 5.782398
Fe 4.508171 0.000000 8.409927
Co 0.013496 1.465535 9.654922
Co 0.642947 0.000000 12.168107
Co 1.290207 1.465535 14.685291
Co 1.937463 0.000000 17.202475
Co 2.566919 1.465535 19.715661
O 0.151068 1.465535 6.050287
O 0.771374 0.000000 8.841008
O 0.537015 0.000000 15.510901
O 1.809041 0.000000 1.392837
O 1.413304 1.465535 11.157336
O 1.167111 1.465535 18.213247
O 2.429347 1.465535 4.183557
O 2.043400 0.000000 13.859682
O 3.051635 0.000000 6.688790
O 2.705957 1.465535 16.173599
O 3.979851 1.465535 2.086444
O 3.761393 1.465535 9.478353
O 3.322326 0.000000 18.884422
O 4.689610 0.000000 4.876006
O 4.418919 0.000000 11.817113
O 5.035288 1.465535 14.527936
