16

Li 1.252515 0.684749 2.046606
Li 1.252515 3.829514 2.046606
Li 1.252515 2.239449 -0.390276
Li 3.757546 2.141078 1.266053
Li 3.757546 5.285842 1.266053
Li 3.757546 3.731136 -1.170829
V 1.252515 5.383342 -0.390276
V 3.757546 0.587249 -1.170829
O 0.018056 5.199072 1.150153
O 2.486975 5.199072 2.943059
O 2.523087 0.771520 0.369600
O 4.992006 0.771520 2.162506
F 0.036749 3.753568 3.668426
F 2.541780 2.217024 2.887874
F 2.468282 3.753568 0.424785
F 4.973313 2.217024 -0.355767
