28

Li 0.537888 3.048348 4.596102
Li 1.847932 7.211507 5.521638
Li 2.871778 1.138782 0.012047
Li 4.285682 5.301933 0.830803
Mn 0.001861 -0.000433 3.660080
Mn 2.383959 4.162726 -0.919933
P 0.616634 2.946401 1.692686
P 1.769186 7.109560 1.047461
P 2.991651 1.241446 4.383361
P 4.165808 5.404605 3.837081
H 2.545617 4.252608 2.770835
H 4.611842 0.089450 5.449607
O 0.551759 4.444155 6.001676
O 0.052951 1.577221 2.173447
O 0.694798 6.932492 2.336693
O 1.233330 3.678359 2.777479
O 1.834061 0.280997 4.116064
O 2.449621 2.589735 4.918126
O 1.152489 7.841518 -0.037331
O 1.691021 2.769333 0.403454
O 3.056307 5.558200 5.081557
O 3.592973 0.499371 5.524102
O 2.332869 5.740380 0.566700
O 2.941177 8.053789 1.356183
O 3.564486 4.662530 2.696340
O 4.101153 1.395041 3.138885
O 4.707838 6.752893 3.302316
O 4.216283 3.890630 -0.513333
