44

Li 0.844557 8.971094 6.193281
Li 1.043699 9.079273 0.975568
Li 1.740665 4.426169 7.789886
Li 3.658151 4.694425 5.415697
Li 3.459008 4.802604 0.966742
Li 4.355116 0.165064 2.563348
Mn 0.753051 2.827740 1.042046
Mn 1.844976 7.574726 3.352346
Mn 3.367502 1.763492 5.482175
Mn 4.459428 6.198972 7.792475
Fe 1.665656 4.471466 3.508230
Fe 4.280108 0.119767 7.948359
B 0.898200 2.829191 5.736931
B 0.820044 6.027939 1.227295
B 1.702897 7.514195 8.337664
B 1.783636 1.394679 3.282034
B 3.434495 7.745758 5.667424
B 3.512651 1.762042 0.510393
B 4.398087 3.196554 7.722163
B 4.317348 6.259503 3.111125
O 0.482863 3.214625 8.865102
O 0.471929 6.036525 3.821278
O 0.850471 8.604723 8.538636
O 1.042878 0.263812 3.150170
O 1.216891 6.250954 8.187486
O 1.187965 2.638884 2.959637
O 1.437326 1.586041 5.929231
O 1.394820 7.238721 1.532747
O 1.493071 4.828572 1.471860
O 1.775155 3.887277 5.379613
O 2.161979 7.806693 5.197248
O 2.164300 1.524243 0.661637
O 3.086381 7.737173 8.261407
O 3.097314 1.376617 3.638564
O 3.657330 4.327420 7.590299
O 3.802416 1.952348 7.399766
O 3.464922 5.168975 3.312098
O 3.831342 7.522744 2.960948
O 4.009271 6.534977 5.972876
O 4.107523 8.945126 5.911989
O 4.051777 3.005191 0.702693
O 4.389601 0.703955 0.153076
O 4.778752 3.066989 5.101766
O 4.776430 5.967005 -0.029290
