40

Li 2.012409 7.806870 7.961302
Li 6.399077 4.924577 6.657599
Li 6.355422 9.223724 6.515442
Li 6.417316 6.462204 9.799993
Fe 0.081548 7.759139 2.422000
Fe 0.426357 5.240124 6.578136
Fe 4.160422 6.221671 7.235941
Fe 3.703641 8.696217 10.410121
Fe 8.156775 7.329737 7.983680
Sb 4.360440 3.775481 4.049131
P 2.136883 3.178089 6.011967
P 2.115831 8.361393 5.249235
P 2.116216 5.595131 9.390235
P 6.191430 7.082242 5.013406
P 6.307572 4.016970 9.263942
P 6.100310 9.338453 8.629742
O 0.672802 1.108533 2.899034
O 0.652913 4.355483 2.276741
O 0.660550 2.817563 4.898465
O 1.859043 1.830576 6.828279
O 3.906591 3.712210 5.809649
O 2.170355 4.426746 6.552772
O 1.796195 8.110685 3.991630
O 2.162165 7.018011 6.088745
O 4.578689 7.271264 4.221637
O 2.203994 5.810623 8.110250
O 6.446927 5.672447 4.864791
O 4.807121 2.800392 8.792995
O 3.897823 9.401094 5.762597
O 1.811704 6.916504 9.541272
O 6.136453 6.864907 6.307316
O 3.888569 5.508971 10.075828
O 6.152104 5.381894 8.476176
O 6.470869 4.353241 10.535841
O 6.110970 8.102560 8.074197
O 4.383184 8.910259 8.830690
O 6.433101 10.650439 7.699269
O 7.517420 9.691203 9.761061
O 7.739320 8.298911 12.202068
O 7.983856 11.520258 11.760554
