13

Li 2.620097 2.489963 1.117198
Li 0.958719 2.066385 3.409557
Li 1.102924 3.955986 1.640126
Li 4.640143 3.535625 4.029409
Li 4.599579 5.645707 2.237513
Li 3.328654 4.909669 4.760763
Fe 0.267369 4.749878 2.950659
O 0.590766 1.456999 0.296848
O 0.788767 4.041939 -0.041694
O 2.665184 4.814864 2.999887
O 4.947426 3.583443 5.709741
O 4.998434 6.186812 5.326768
F 2.811853 2.703586 2.711730
