13

Li 2.935560 -1.446475 2.399806
Mn 0.000000 0.000000 0.000000
Mn 2.935560 1.140232 4.150508
Cr 0.000000 0.000000 2.358115
Cr 0.000000 2.586707 4.108817
O 4.444292 2.797845 4.696199
O 1.407724 1.791803 3.112937
O 1.217207 4.392990 4.617991
O 1.401924 1.755379 5.149171
O 4.469197 0.525086 3.151844
O 4.653914 -2.112525 3.683024
O 4.463396 0.488662 5.188079
O 1.426829 -0.517380 3.604816
