44

Li 0.939268 5.981885 6.230500
Li 0.884520 8.911288 1.049391
Li 1.680785 1.483030 8.565276
Li 1.735534 4.412433 3.710383
Li 3.504573 4.585279 5.809165
Li 3.559322 7.514682 0.954273
Li 4.355588 0.086423 8.470157
Li 4.300839 3.015826 3.289048
Fe 0.782217 2.938940 1.198091
Fe 1.837837 7.437796 3.561683
Fe 3.402271 1.559915 5.957865
Fe 4.457890 6.058771 8.321457
B 0.890022 2.976074 6.125871
B 0.861788 5.954109 1.224812
B 1.730032 7.474930 8.669905
B 1.758266 1.455254 3.534962
B 3.481842 7.542457 5.984587
B 3.510075 1.522782 0.849643
B 4.378319 3.043602 8.294736
B 4.350085 6.021637 3.393677
O 0.365309 2.834207 9.346163
O 0.488001 6.052652 4.001561
O 1.023147 8.598420 8.983991
O 1.062526 2.597072 3.178166
O 1.099579 6.314954 8.276888
O 1.247617 0.216467 3.313525
O 1.520475 1.816098 6.518888
O 1.372436 4.715323 1.446249
O 1.557528 7.095928 1.581608
O 1.596907 4.099564 5.811785
O 2.254745 7.333063 5.449614
O 2.132053 1.553797 0.758223
O 3.108054 7.443915 8.761335
O 2.985362 1.664649 4.069935
O 3.643200 4.898147 3.707763
O 3.682580 1.901783 7.937941
O 3.867671 4.282389 8.073299
O 3.719632 7.181613 3.000660
O 3.992490 8.781244 6.206023
O 4.140528 2.682758 1.242660
O 4.177581 6.400639 6.341382
O 4.216961 0.399291 0.535558
O 4.752106 2.945059 5.517987
O 4.874798 6.163504 0.173386
