24

Ti 1.084107 3.887986 1.664257
Ti 1.080615 1.270537 1.777376
Ti 2.053232 -0.099152 6.456670
Mn 4.083222 2.434971 1.430155
Mn 5.133470 1.053305 6.050699
Mn 5.137110 -1.535697 6.156023
Te 2.104784 2.528719 4.235442
Te 4.139335 -0.191770 8.810049
O 1.255398 3.802221 5.336461
O 0.318790 2.617110 3.070346
O 1.796129 2.544053 0.691938
O 0.149118 -0.006594 2.689941
O 0.040712 -0.003093 7.326554
O 1.248878 1.335428 5.442391
O 2.812227 3.656824 2.854789
O 2.804996 1.330320 2.953806
O 2.262337 -0.105877 0.812933
O 4.103245 2.431967 5.038916
O 3.094000 0.960910 7.603133
O 3.110926 -1.251019 7.692902
O 4.064325 -0.189630 5.345305
O 5.154833 0.971340 0.445560
O 5.795250 -0.264762 7.355501
O 5.150557 -1.449902 0.550340
