16

Li 10.248713 14.265337 19.089831
Li 0.000000 2.922538 3.425606
Li 5.124361 4.210129 8.077298
Li 5.124361 7.132661 10.197580
Cu -0.000010 2.922524 2.120269
Cu 5.124341 10.055171 11.012511
Cu 5.124392 7.132745 8.892309
Te 0.000031 0.000031 0.000040
O 0.006856 0.009625 0.714426
O 0.001230 3.237588 2.913763
O 5.674892 4.664813 8.064824
O 10.241887 14.255743 19.680772
O 4.571761 6.363394 8.778652
O 10.247493 11.027764 17.481408
O 4.573800 9.600507 12.330307
O 5.676952 7.901949 11.616505
