56

Li 0.680966 1.485452 8.994026
Li 0.680966 3.893308 3.970824
Li 2.339322 7.041561 6.357965
Li 2.339322 9.094720 1.334762
Li 3.546401 1.662801 8.408441
Li 3.546401 3.715960 3.385238
Li 5.204756 6.864213 5.772379
Li 5.204756 9.272069 0.749177
Cr 0.775738 9.720744 7.216787
Cr 0.775738 6.415538 2.193585
Cr 2.010057 4.012416 9.750328
Cr 2.010057 1.366345 4.727125
Cr 3.875666 9.391176 5.016078
Cr 3.875666 6.745106 -0.007125
Cr 5.109985 4.341972 7.549618
Cr 5.109985 1.036788 2.526416
P 0.739659 6.939397 9.072851
P 0.739659 9.196885 4.049648
P 2.190754 4.221370 6.494222
P 2.190754 1.157391 1.471020
P 3.694969 9.600130 8.272183
P 3.694969 6.536152 3.248981
P 5.146064 1.560637 5.693555
P 5.146064 3.818124 0.670352
O 0.527384 8.443826 5.398584
O 0.590356 0.784589 6.273637
O 0.527384 7.692456 0.375381
O 0.590356 4.594172 1.250434
O 1.042532 7.852528 7.883185
O 0.893429 5.077238 6.428933
O 1.042532 8.283754 2.859983
O 0.893429 0.301523 1.405731
O 1.934637 5.967886 9.183075
O 2.165652 3.292339 7.759735
O 1.934637 10.168396 4.159873
O 2.275150 3.339317 5.195707
O 2.461704 10.548449 8.242886
O 2.165652 2.086421 2.736532
O 2.275150 2.039443 0.172504
O 2.461704 5.587833 3.219683
O 3.424019 5.169688 6.523520
O 3.610573 8.718078 9.570699
O 3.720071 8.671100 7.006671
O 3.424019 0.209072 1.500317
O 3.610573 7.418204 4.547496
O 3.951086 0.589125 5.583330
O 3.720071 7.465182 1.983468
O 3.951086 4.789636 0.560128
O 4.992294 10.455999 8.337472
O 4.843191 2.473767 6.883220
O 4.992294 5.680283 3.314270
O 4.843191 2.904993 1.860018
O 5.295367 6.163350 8.492769
O 5.358339 3.065065 9.367822
O 5.295367 9.972932 3.469566
O 5.358339 2.313695 4.344619
