24

Fe 4.675479 -0.000000 8.759008
Fe 3.930520 1.433993 6.043378
Fe 3.185561 2.867986 3.327749
Co 1.961722 2.867986 17.284605
Co 1.310173 1.433993 14.737307
Co 0.658624 -0.000000 12.190009
Co 0.061127 1.433993 9.664844
Co 2.559219 1.433993 19.809770
O 3.285784 2.867986 18.961850
O 1.267032 1.433993 18.150152
O 0.629412 -0.000000 15.616046
O 2.642195 1.433993 16.408121
O 1.990934 2.867986 13.858567
O 5.218845 1.433993 14.762908
O 4.575256 -0.000000 12.209179
O 1.353315 1.433993 11.324462
O 0.803005 2.867986 8.877855
O 3.944963 1.433993 9.657386
O 3.176410 -0.000000 6.881180
O 0.148904 1.433993 6.198259
O 4.684629 2.867985 5.205577
O 2.471443 1.433993 4.192083
O 1.817341 -0.000000 1.512487
O 3.916076 1.433993 2.429371
