14

Mn 3.394543 5.883847 -0.150358
Mn 3.165254 5.769203 3.535581
Mn 2.142716 2.363446 0.782835
Mn 1.913428 2.248802 4.468774
F 3.761175 6.566916 1.590837
F 0.049603 2.455307 0.035070
F 2.903592 3.882302 3.721009
F 2.314445 5.843551 -2.095103
F 4.120317 2.060159 1.842970
F 2.993525 2.289098 6.413519
F 2.404378 4.250348 0.597408
F 5.258367 5.677343 4.283347
F 1.546796 1.565733 2.727580
F 1.187653 6.072490 2.475447
