34

Ni 4.817449 4.305576 7.604232
Ni 0.960507 2.289459 4.180350
Ni 6.763652 1.748146 2.666019
Ni 2.906709 -0.267972 -0.757863
S 1.927641 3.079458 6.802908
S 3.540584 3.922583 2.636888
S 7.331671 3.832442 4.926031
S 0.392488 0.205163 1.920339
S 4.183574 0.115022 4.209482
S 5.796517 0.958147 0.043462
O 1.024069 6.402813 8.510297
O 0.311206 6.030182 4.659836
O 0.984853 3.182329 7.981511
O 3.026356 4.054173 6.703484
O 0.998409 3.413807 5.743676
O 3.834751 4.672040 3.647665
O 6.078225 4.033324 5.913560
O 2.694781 1.724891 6.673557
O 2.005910 3.520753 2.894753
O 3.576865 4.761628 1.446658
O 0.713774 1.229196 2.694213
O 3.039147 1.272372 4.390021
O 4.685011 2.765232 2.456348
O 7.010384 2.808409 4.152156
O 4.147294 -0.724023 5.399711
O 5.718256 0.516848 3.951613
O 5.029377 2.312714 0.172812
O 1.645933 0.004281 0.932809
O 3.889407 -0.634435 3.198704
O 6.725749 0.623798 1.102694
O 4.697802 -0.016561 0.142887
O 6.739305 0.855276 -1.135142
O 7.412952 -1.992577 2.186534
O 6.700090 -2.365208 -1.663928
