14

Li 1.413951 1.351475 2.133093
Li 3.458046 3.560938 2.790550
Li 4.340481 0.895307 1.856805
Li 6.384576 3.104770 2.514266
Cr 1.925371 3.543637 4.679261
Cr 5.873156 0.912608 -0.031902
O 0.420497 4.270482 5.105373
O 1.646940 2.498957 3.553249
O 2.870926 4.876358 4.206144
O 2.807680 2.554065 1.322915
O 4.990847 1.902180 3.324444
O 4.927601 -0.420113 0.441215
O 6.151587 1.957288 1.094110
O 7.378030 0.185763 -0.458014
