26

Li 0.000000 0.000000 0.000000
Li 2.308688 4.419296 2.350944
Li 5.114891 2.960811 2.479551
Li 7.921095 1.502326 2.608159
Fe 2.852861 1.499254 4.780737
Fe 7.376921 4.422368 0.178365
P 1.050599 1.472650 2.036817
P 4.157056 4.445256 4.591517
P 6.072726 1.476366 0.367586
P 9.179184 4.448972 2.922285
O 0.435318 4.445585 3.264053
O 1.256248 1.409697 3.562711
O 1.732291 0.268412 1.271853
O 1.839274 2.647310 1.362640
O 3.430537 5.698208 4.030725
O 3.451846 3.218577 3.903045
O 4.137344 4.347683 1.286211
O 4.605847 1.499433 0.937350
O 5.623936 4.422189 4.021752
O 6.092439 1.573939 3.672891
O 6.799246 0.223414 0.928378
O 6.777937 2.703045 1.056057
O 8.390509 3.274312 3.596462
O 8.497492 5.653211 3.687250
O 8.973535 4.511919 1.396391
O 9.794465 1.476031 1.695049
