48

Mn 1.024509 1.039194 5.160612
Mn 1.029288 3.096233 7.215125
Mn 1.036221 5.150662 1.026372
Mn 3.093320 3.087786 5.152626
Mn 3.097719 5.144932 3.090054
Mn 3.099188 7.207675 1.031964
Mn 5.152507 3.078834 3.093330
Mn 5.160472 1.015302 1.035924
Mn 5.167397 7.211974 7.228529
Mn 7.214765 1.022986 3.099777
Mn 7.219651 7.214390 5.165705
Mn 7.226427 5.149458 7.220954
Cr 1.029948 7.217136 3.099143
Cr 3.097125 1.028021 7.220676
Cr 5.160538 5.147440 5.159944
Cr 7.218314 3.081792 1.030307
O 0.889895 0.909417 3.227189
O 0.896844 7.356535 5.041396
O 0.912864 5.039609 7.338868
O 1.137880 1.169274 7.089416
O 0.910380 3.217836 0.892922
O 1.152934 2.977625 5.273467
O 1.166264 5.272585 2.953999
O 1.174814 7.082538 1.152732
O 2.954645 1.151769 5.280835
O 2.962766 2.961953 7.084831
O 2.977680 5.267906 1.148592
O 3.220730 5.022383 5.023742
O 2.978043 7.072344 2.961755
O 3.209893 3.203591 3.214610
O 3.227828 0.893080 0.908667
O 3.236634 7.341045 7.348134
O 5.019040 3.200417 5.026169
O 5.030380 5.007231 3.213693
O 5.039773 7.326537 0.918471
O 5.278786 2.948963 1.160365
O 5.052879 0.894716 7.362732
O 5.275642 1.138715 2.976287
O 5.287114 7.094700 5.300454
O 5.295805 5.278091 7.103772
O 7.081413 2.955028 2.977828
O 7.095667 1.143171 1.169322
O 7.106908 7.088961 7.105615
O 7.339756 7.338901 3.238139
O 7.095510 5.280580 5.284580
O 7.338122 0.904008 5.039573
O 7.352227 3.222738 7.336420
O 7.357972 5.023407 0.902867
