12

Co 2.826367 1.034522 -0.597282
Co 2.826367 -1.413184 -1.413184
Co 0.000000 2.447706 0.815902
Bi 2.826367 1.034522 2.033604
O 4.274761 1.351750 3.233617
O 4.274761 -0.944022 2.468360
O 1.560036 2.764362 4.757857
O 1.623833 0.381443 3.793824
O 4.028901 1.687601 0.273383
O 4.092698 -0.695319 -0.690650
O 1.377973 3.013065 1.598848
O 1.377973 0.717294 0.833591
