26

Na 0.748029 1.636375 4.035411
Na 2.403501 0.020357 1.337568
Na 2.403501 3.252394 1.337568
Na 6.637757 3.293107 4.122888
Na 6.637757 6.525145 4.122888
Na 8.293230 4.909126 1.425045
Cu 3.208625 4.909126 4.115088
Cu 5.832633 1.636375 1.345369
P 3.786000 1.636375 3.715775
P 5.255259 4.909126 1.744681
C 0.542222 4.909126 3.753913
C 8.499036 1.636375 1.706544
O 0.749123 1.636375 1.319377
O 1.266084 4.909126 4.841717
O 1.120221 4.909126 2.600246
O 2.884469 0.404296 4.090951
O 2.884469 2.868455 4.090951
O 4.019264 1.636375 2.155152
O 3.914331 4.909126 1.038151
O 5.126927 1.636375 4.422306
O 5.021994 4.909126 3.305305
O 6.156790 3.677047 1.369506
O 6.156790 6.141206 1.369506
O 7.921037 1.636375 2.860211
O 7.775175 1.636375 0.618740
O 8.292136 4.909126 4.141079
