46

Li 3.875752 0.746560 3.461764
Li 1.318963 3.743668 9.250977
Li 2.575796 3.795108 6.310762
Li 3.809066 3.825054 3.503991
Li 3.819423 5.285143 8.224053
Li 5.119380 8.333690 5.375055
Li 1.246095 8.282250 4.434567
Li 3.886110 8.363636 8.181826
Ti 0.058391 2.225630 7.413939
Ti 2.539049 2.252117 1.473889
Ti 0.026010 6.790700 2.421383
Ti 2.506667 6.764212 6.271605
V 0.013662 0.760403 2.393037
V 2.542763 0.706294 6.336973
V 1.299361 2.351730 4.463225
V 3.850019 2.262483 -1.483317
V 5.126444 3.855544 0.508376
V 0.022295 5.244877 7.348571
V 2.551397 5.298995 1.502236
V 1.265697 6.890312 9.222319
V 3.845156 6.801066 3.378862
V 2.568732 8.394126 1.387169
O 0.632148 0.845937 5.976245
O 1.966764 0.851347 2.873581
O 1.939164 2.255920 7.734793
O 4.404729 0.850539 6.772860
O 3.196417 0.893193 -0.004297
O 0.637422 2.346665 1.063722
O 0.513248 3.668128 6.101454
O 3.269280 2.180707 4.978402
O 4.448017 2.258734 1.870514
O 2.029202 3.667184 2.823847
O 3.133917 3.717462 0.056074
O 4.555611 3.644581 6.796138
O 1.932910 5.384520 7.709299
O 0.598295 5.389930 1.021691
O 0.625895 6.794503 5.950751
O 3.290447 5.389122 4.912957
O 1.927636 6.885247 2.831550
O 4.498759 5.431775 1.899842
O 4.425896 6.719289 6.707415
O 0.535856 8.205766 1.071426
O 2.051811 8.206710 7.584091
O 3.247159 6.797317 0.025031
O 3.139565 8.183164 4.889679
O 4.561259 8.256044 1.839471
