80

Li 0.632394 8.698503 0.830442
Li 0.565478 4.283347 4.678626
Li 1.595199 2.191204 7.168744
Li 2.834506 3.911993 2.552456
Li 3.797311 9.890754 5.446730
Li 3.864227 1.819850 0.062338
Li 4.995183 10.386544 9.170237
Li 5.062099 2.315641 3.785845
Li 6.024904 8.294401 6.680119
Li 7.264211 10.015190 2.063831
Li 8.293932 7.923047 4.553949
Li 8.227017 3.507891 8.402133
V 0.340423 6.122406 2.279929
V 1.021880 10.590295 3.511499
V 0.998544 1.751913 1.072179
V 3.407825 7.998962 8.127787
V 3.431161 4.351284 5.688466
V 4.089282 -0.019209 6.896216
V 4.770128 12.225603 2.336358
V 5.428249 7.855110 3.544109
V 5.451585 4.207432 1.104788
V 7.860866 10.454481 8.160396
V 7.837530 1.616099 5.721076
V 8.518987 6.083988 6.952646
Fe 2.188850 11.073177 0.207096
Fe 2.240855 7.516080 4.823383
Fe 2.256536 4.715673 8.942294
Fe 2.173169 1.387524 4.326006
Fe 6.686241 10.818870 4.906569
Fe 6.602874 7.490721 0.290281
Fe 6.618555 4.690314 4.409192
Fe 6.670560 1.133217 9.025479
O 0.540149 5.461820 8.153592
O 0.615445 11.304817 8.200992
O 0.578147 7.560813 6.093896
O 0.640899 2.383373 5.319588
O 0.858973 7.368703 3.394661
O 1.089344 10.421102 1.762129
O 1.237872 12.242849 3.877118
O 1.101349 3.035593 9.107021
O 1.550973 2.338849 2.629724
O 1.738269 5.316231 1.586756
O 2.164673 9.587612 4.378659
O 2.265032 9.001645 8.994947
O 2.192199 0.582783 0.500479
O 2.237506 5.520414 5.116767
O 2.691436 0.786966 6.203044
O 2.878732 3.764348 7.246011
O 3.191833 6.346408 8.493406
O 3.328356 3.067604 4.490734
O 3.340361 8.168155 6.378417
O 3.570732 11.220554 8.010948
O 3.851558 11.028444 1.477609
O 3.814260 7.284440 3.584704
O 3.788806 3.719824 0.703301
O 3.889556 0.641378 3.537304
O 4.969854 11.565017 5.695271
O 5.070604 8.486570 8.529274
O 5.045151 4.921954 5.647871
O 5.007852 1.177950 7.754966
O 5.288678 0.985840 1.221627
O 5.519049 4.038239 2.854158
O 5.531054 9.138790 4.741841
O 5.667577 5.859987 0.739169
O 5.980678 8.442047 1.986564
O 6.167974 11.419428 3.029531
O 6.621904 6.685980 4.115808
O 6.667211 11.623611 8.732096
O 6.594378 3.204750 0.237628
O 6.694737 2.618782 4.853915
O 7.121141 6.890163 7.645818
O 7.308437 9.867545 6.602851
O 7.758061 9.170801 0.125554
O 7.621538 -0.036455 5.355457
O 7.770066 1.785292 7.470446
O 8.000437 4.837692 5.837914
O 8.218511 9.823022 3.912987
O 8.281263 4.645581 3.138678
O 8.243965 0.901578 1.031574
O 8.319261 6.744575 1.078983
