24

Mn 3.891442 2.338410 2.055792
Mn 4.904748 0.979237 6.741763
Mn 4.903589 -1.562040 6.718261
Nb 1.967734 2.444365 4.712608
Nb 3.910605 -0.234516 9.361471
Cr 0.964763 3.762098 2.104375
Cr 0.993700 1.244978 1.996107
Cr 1.990551 -0.119387 6.679455
O 0.974584 3.783536 5.621074
O 0.281440 2.596740 3.175010
O 1.995447 2.499720 1.072236
O 5.884653 2.176036 2.934235
O 5.847675 2.223145 7.655912
O 0.970203 1.243348 5.590705
O 2.843333 3.513287 3.180651
O 2.866582 1.315185 3.165531
O 1.984136 -0.137423 0.938900
O 3.934735 2.341762 5.678892
O 3.137899 0.949396 7.834532
O 3.142363 -1.321019 7.814387
O 4.004292 -0.235691 5.741070
O 4.907539 0.972268 1.027914
O 5.667532 -0.339677 7.817968
O 4.896009 -1.566131 0.998311
