96

Li 0.436154 1.952898 5.137346
Li 0.436154 2.587120 12.011313
Li 4.173750 6.485062 5.135203
Li 4.173750 7.134993 12.009171
Li 7.080348 4.110660 1.695280
Li 7.080348 0.429359 8.569248
Li 8.849628 7.036865 8.551662
Li 8.849628 6.583190 1.677694
Ni 1.284939 0.972971 1.682010
Ni 1.284939 3.567047 8.555978
Ni 3.334591 5.507079 1.677296
Ni 3.334591 8.112976 8.551264
Ni 5.895885 0.970756 5.122172
Ni 5.895885 3.569263 11.996139
Ni 7.939691 5.492859 5.116838
Ni 7.939691 8.127196 11.990805
S 0.721569 0.604449 9.976314
S 0.721569 3.935569 3.102346
S 1.476857 6.218173 6.737622
S 1.476857 7.401882 13.611589
S 3.165798 1.694244 6.748903
S 3.165798 2.845774 13.622870
S 3.897648 8.463856 3.087126
S 3.897648 5.156199 9.961094
S 5.296785 3.920551 3.745582
S 5.296785 0.619467 10.619550
S 6.090514 6.229659 0.089283
S 6.090514 7.390396 6.963250
S 7.750078 1.672416 0.073694
S 7.750078 2.867603 6.947661
S 8.502047 5.143024 10.563094
S 8.502047 8.477031 3.689126
O 0.000000 6.360811 6.547468
O 0.000000 7.259244 13.421435
O 0.133487 9.053795 4.794331
O 0.133487 4.566260 11.668298
O 0.199626 4.214199 4.484951
O 0.199626 0.325819 11.358919
O 0.729886 2.108766 9.920661
O 0.729886 2.431252 3.046693
O 1.721619 6.597001 1.108996
O 1.721619 7.023054 7.982964
O 1.851150 8.817842 0.147877
O 1.851150 4.802213 7.021845
O 2.083980 0.049650 9.873123
O 2.083980 4.490369 2.999155
O 2.236111 6.666890 5.578182
O 2.236111 6.953165 12.452149
O 2.373775 2.106369 5.590650
O 2.373775 2.433650 12.464617
O 2.524135 9.027935 2.997427
O 2.524135 4.592120 9.871394
O 2.792843 0.271666 7.031732
O 2.792843 4.268353 0.157764
O 2.900005 2.035154 1.096239
O 2.900005 2.504864 7.970207
O 3.851287 6.954909 3.069803
O 3.851287 6.665146 9.943770
O 4.423030 4.859154 11.333290
O 4.423030 8.760901 4.459323
O 4.473937 4.527016 4.783194
O 4.473937 0.013003 11.657162
O 4.622499 1.840215 6.494627
O 4.622499 2.699804 13.368594
O 4.616607 6.379725 0.307092
O 4.616607 7.240330 7.181060
O 4.730510 4.614711 8.885455
O 4.730510 9.005344 2.011488
O 4.817829 4.237971 2.350812
O 4.817829 0.302047 9.224779
O 5.299247 2.431888 3.803829
O 5.299247 2.108130 10.677797
O 6.334482 6.598308 5.722201
O 6.334482 7.021747 12.596169
O 6.443507 4.791908 13.568382
O 6.443507 8.828147 6.694415
O 6.710195 4.440583 3.758104
O 6.710195 0.099435 10.632072
O 6.869850 6.627737 1.257658
O 6.869850 6.992318 8.131625
O 7.049707 2.190695 1.240061
O 7.049707 2.349323 8.114028
O 7.125169 4.595352 10.659069
O 7.125169 9.024703 3.785101
O 7.373167 4.272766 6.686360
O 7.373167 0.267253 13.560328
O 7.516234 2.055984 5.696938
O 7.516234 2.484035 12.570906
O 8.489904 6.646078 10.608104
O 8.489904 6.973977 3.734137
O 9.024239 4.846815 9.181614
O 9.024239 8.773240 2.307647
O 9.055626 0.029955 8.880871
O 9.055626 4.510063 2.006890
O 0.025587 1.802460 0.295778
O 0.025587 2.737558 7.169745
