18

Li 0.000000 0.000000 0.000000
Li 0.000000 0.000000 0.000000
Li 0.000000 0.000000 0.000000
Li 0.000000 0.000000 0.000000
Li 0.000000 0.000000 0.000000
Li 0.000000 0.000000 0.000000
Li 0.000000 0.000000 0.000000
Li 0.000000 0.000000 0.000000
Fe 0.000000 0.000000 0.000000
Fe 0.000000 0.000000 0.000000
O 0.000000 0.000000 0.000000
O 0.000000 0.000000 0.000000
O 0.000000 0.000000 0.000000
O 0.000000 0.000000 0.000000
O 0.000000 0.000000 0.000000
O 0.000000 0.000000 0.000000
F 0.000000 0.000000 0.000000
F 0.000000 0.000000 0.000000
