28

Li 1.325016 3.372854 5.666694
Li 1.787440 7.339975 1.888898
Li 4.437473 0.594267 5.666694
Li 4.899897 4.561388 1.888898
V 1.472086 3.174347 1.888898
V 1.640371 7.141469 5.666694
V 4.584543 0.792774 1.888898
V 4.752827 4.759895 5.666694
F 0.029712 0.081540 5.666694
F 0.597112 4.805207 1.888898
F 0.527437 5.426887 5.666694
F 1.370938 2.948436 0.098888
F 1.370938 2.948436 3.678909
F 1.741519 6.915557 7.456705
F 1.741519 6.915557 3.876684
F 2.585020 1.459766 1.888898
F 2.515344 0.838086 5.666694
F 3.082745 4.048661 1.888898
F 3.142168 3.885581 5.666694
F 3.709569 7.096156 1.888898
F 3.639894 6.474477 5.666694
F 4.483394 1.018685 3.678909
F 4.483394 1.018685 0.098888
F 4.853976 4.985806 7.456705
F 4.853976 4.985806 3.876684
F 5.697477 2.507355 1.888898
F 5.627801 3.129035 5.666694
F 6.195202 7.852702 1.888898
