28

Li 0.028671 10.138718 6.025259
Li 0.028671 10.138718 3.033092
Li 2.363224 5.059824 3.042634
Li 2.363224 5.059824 6.015718
Cr 4.544945 2.772098 1.509725
Ni 0.088603 7.356172 4.529176
Ni 2.279354 2.224305 4.529176
Ni 2.466614 7.844920 1.509725
P 0.389264 6.039540 1.509725
P 1.980708 0.914467 1.509725
P 2.775768 9.153660 4.529176
P 4.342353 4.057751 4.529176
O 0.938451 4.578500 1.509725
O 1.053724 6.739905 0.270603
O 1.053724 6.739905 2.748847
O 1.135518 4.058578 4.529176
O 1.238467 9.113638 4.529176
O 1.352403 1.611966 0.252625
O 1.352403 1.611966 2.766825
O 1.433960 9.619236 1.509725
O 3.339015 0.432634 4.529176
O 3.434988 8.411492 3.296171
O 3.434988 8.411492 5.762180
O 3.522401 0.960850 1.509725
O 3.593961 6.021275 1.509725
O 3.657535 3.344368 3.323576
O 3.657535 3.344368 5.734776
O 3.798294 5.522445 4.529176
