24

Na 2.188895 3.179747 1.200859
Na 2.188895 0.040576 1.200859
Na 6.832491 3.260899 3.989372
Na 6.832491 6.400070 3.989372
Cu 3.215114 4.830484 4.036279
Cu 5.806272 1.610161 1.153952
P 3.835866 1.610161 3.663399
P 5.185520 4.830484 1.526832
C 0.670704 4.830484 3.770563
C 8.350682 1.610161 1.419669
O 0.587193 1.610161 1.470706
O 1.307632 4.830484 4.903624
O 1.439425 4.830484 2.725354
O 2.986746 0.382355 4.093181
O 2.986746 2.837968 4.093181
O 3.793493 4.830484 0.861414
O 4.023484 1.610161 2.105482
O 4.997902 4.830484 3.084750
O 5.227893 1.610161 4.328818
O 6.034640 3.602678 1.097050
O 6.034640 6.058290 1.097050
O 7.581961 1.610161 2.464878
O 7.713754 1.610161 0.286608
O 8.434193 4.830484 3.719526
