28

Li 0.000191 10.538562 6.145768
Li 0.000191 10.538562 3.079849
Li 2.392669 5.262426 3.068606
Li 2.392669 5.262426 0.006599
Mn 0.106855 7.592302 4.612808
V 2.304295 2.360161 4.612808
V 2.474480 8.194637 1.537603
V 4.698077 2.905838 1.537603
P 0.408160 6.250359 1.537603
P 1.982038 0.984559 1.537603
P 2.796943 9.580939 4.612808
P 4.367772 4.280128 4.612808
O 0.983981 4.809766 1.537603
O 1.054093 6.988538 0.303886
O 1.054093 6.988538 2.771320
O 1.128215 4.252304 4.612808
O 1.256893 9.536107 4.612808
O 1.334919 1.718644 0.301887
O 1.334919 1.718644 2.773319
O 1.403057 10.084511 1.537603
O 3.383222 0.479273 4.612808
O 3.434704 8.845816 3.377246
O 3.434704 8.845816 5.848371
O 3.520745 1.025532 1.537603
O 3.648113 6.295429 1.537603
O 3.724534 3.550341 3.374675
O 3.724534 3.550341 5.850942
O 3.785551 5.721793 4.612808
