14

Li 5.893862 2.918128 4.799786
Li 0.855285 1.626378 2.630194
Li 5.031157 6.377786 5.545059
Fe 2.944126 1.459337 4.796079
Fe 2.944026 4.002340 4.088364
Fe 2.944203 4.002108 6.483069
O 1.714375 5.714853 4.419364
O 1.713283 5.715183 7.043379
O 1.710546 3.413697 2.893367
O 1.574188 3.266030 5.266976
O 4.174486 2.289388 3.756372
O 4.174350 2.289865 1.132479
O 4.177034 4.590277 5.282740
O 4.314095 4.738317 2.908895
