17

V 2.001600 2.554513 3.798054
Te 5.810203 16.241599 18.085167
Te 5.708078 11.798032 14.838957
Te 2.926814 12.682632 12.535137
Te 2.786864 8.153826 8.803750
O 2.005180 5.439259 4.986590
O 1.456585 2.981620 5.337345
O 0.633094 3.527752 5.916975
O 5.294536 8.303122 8.891267
O 2.094887 10.279462 8.508850
O 4.470740 8.992655 9.586870
O 0.960355 7.765528 8.437369
O 3.411891 5.363345 9.219072
O 0.689909 8.667807 9.467991
O 5.245805 12.841553 12.043514
O 4.197682 13.415238 12.556397
O 3.373868 10.257448 12.633348
