24

Ti 0.943295 3.751621 1.884790
Ti 0.943166 1.202370 1.877470
Ti 1.868577 -0.127580 6.311542
Mn 3.850611 2.278507 1.896699
Mn 4.861810 0.912788 6.355878
Mn 4.861822 -1.576330 6.348888
Cr 2.013565 2.403820 4.361464
Cr 3.914359 -0.267035 8.796213
O 1.008597 3.725741 5.379979
O 0.307599 2.520322 3.072152
O 1.967156 2.407092 0.890527
O 5.811413 2.144716 2.846144
O 5.810651 2.144758 7.304261
O 1.008603 1.219162 5.372958
O 2.839270 3.430116 3.052355
O 2.839282 1.264915 3.046223
O 2.004696 -0.136745 0.945212
O 3.851496 2.278444 5.407452
O 3.109798 0.881341 7.510441
O 3.109763 -1.305733 7.504327
O 3.947338 -0.269362 5.369617
O 4.852982 0.898540 0.931555
O 5.626223 -0.383934 7.466299
O 4.852947 -1.560858 0.924604
