42

V 0.080031 5.803729 7.556345
V 0.127695 5.839078 4.218434
V 3.809403 4.743350 4.241108
V 3.848569 4.792996 7.631737
V 6.329545 -0.666114 0.850206
V 6.368710 -0.616468 4.240835
V 10.050419 -1.712196 4.263502
V 10.098083 -1.676847 0.925598
Si 1.773190 3.676147 5.943620
Si 2.876488 2.211547 2.563132
Si 2.937912 0.089922 4.448385
Si 2.960874 0.070407 0.697454
Si 7.217239 4.056476 7.784488
Si 7.240201 4.036960 4.033558
Si 7.301626 1.915335 5.918811
Si 8.404923 0.450735 2.538323
O 1.172478 -0.312895 4.267094
O 1.167531 -0.269455 0.854818
O 0.798442 2.303252 6.041089
O 1.534513 4.590820 7.242516
O 1.630442 4.487431 4.569699
O 1.093537 2.105532 2.466134
O 4.040599 -0.994705 4.027944
O 3.950869 -1.097157 1.059356
O 3.562238 3.619573 5.930002
O 3.665556 3.648560 2.624623
O 3.285699 0.288740 5.954306
O 3.377902 1.475027 3.850150
O 3.501678 1.413836 1.357323
O 6.676435 2.713046 7.124619
O 6.800211 2.651855 4.631792
O 6.892415 3.838142 2.527637
O 6.512557 0.478322 5.857320
O 6.615875 0.507309 2.551940
O 6.227245 5.224039 7.422586
O 6.137514 5.121587 4.453999
O 9.084577 2.021350 6.015808
O 8.547671 -0.360549 3.912243
O 8.643600 -0.463938 1.239427
O 9.379671 1.823630 2.440853
O 9.010582 4.396338 7.627125
O 9.005635 4.439778 4.214848
