47

Mn 0.746178 3.493224 15.365891
Mn 2.181432 5.495386 9.492899
Mn 0.713945 3.524133 5.831820
Mn 3.650076 4.945287 13.912688
Mn 4.372485 5.946300 10.973497
Mn 5.090007 6.949772 8.037112
Mn 1.431903 2.009225 3.643776
Mn 0.712787 1.011661 6.580228
Mn 2.181432 2.978474 0.723684
Mn 2.930960 3.947723 -2.196408
Mn 3.648919 2.432815 14.661096
Mn 5.090007 4.432860 8.790671
Mn 3.616686 2.463723 5.127024
Mn 5.090007 4.432860 -0.732103
Mn 5.807530 2.919420 6.607844
O 0.980202 4.161332 9.196671
O 0.130618 2.980874 12.087627
O 1.567373 4.986197 6.218228
O 2.795490 6.004574 12.767571
O 1.942742 4.827412 15.658441
O 0.443837 2.892337 2.463331
O 1.297777 3.852725 -0.491231
O 4.015196 5.496556 7.869683
O 4.726377 6.400078 14.075485
O 5.355456 7.284784 11.486245
O 1.947786 2.599084 16.317334
O 2.574770 3.495594 13.739674
O 3.387321 4.609215 10.457518
O 0.293487 0.720051 3.325503
O 0.975548 1.347735 10.035395
O 4.824559 6.614760 4.587979
O 1.788093 2.461353 6.753242
O 2.415078 3.357864 4.175582
O 1.066179 1.581762 0.582341
O 5.453638 7.499466 1.998739
O 0.347668 0.460391 12.623233
O 3.296684 4.375186 0.865027
O 4.069377 5.236897 -1.878135
O 5.359452 5.066610 12.157569
O 4.513190 3.882064 15.033576
O 3.065086 2.104222 1.938600
O 2.420121 6.163360 3.327358
O 3.919026 3.064611 -1.015963
O 4.232245 2.976073 8.405289
O 3.382662 1.795615 11.296245
O 5.666824 4.983656 2.547766
O 4.820563 3.799111 5.423772
