24

Cr 1.020735 3.784495 1.955033
Cr 1.020800 1.257820 1.955410
Cr 3.938171 2.325590 1.955316
Cr 2.041977 -0.136748 6.545000
Cr 4.959378 0.931048 6.545026
Cr 4.959426 -1.595535 6.544898
Te 1.993407 2.455990 4.503419
Te 3.986759 -0.267058 9.093294
O 1.028951 3.773499 5.479843
O 0.263318 2.571804 3.169045
O 1.993353 2.455747 0.999246
O 5.979742 -2.989874 2.692506
O 0.000144 -0.000041 7.282633
O 1.028921 1.267541 5.479670
O 2.858406 3.521673 3.168991
O 2.858388 1.274167 3.169013
O 2.057604 -0.137694 0.889483
O 3.922569 2.326658 5.479623
O 3.121862 0.914588 7.758769
O 3.121868 -1.332847 7.758781
O 3.986885 -0.267007 5.588918
O 4.951077 0.921402 0.889500
O 5.716950 -0.383017 7.758801
O 4.951173 -1.584660 0.889483
