52

Li 0.884864 4.996144 0.744996
Li 1.402751 10.076328 4.457591
Li 2.786191 3.390609 3.862862
Li 3.304078 11.681864 2.044120
Li 5.073806 1.689575 3.534113
Li 5.591693 9.980830 1.715371
Li 6.975133 3.295110 1.120642
Li 7.493020 8.375294 4.833237
Fe 0.986923 1.158675 1.834821
Fe 1.717274 6.578159 3.459198
Fe 2.471669 13.263879 4.861256
Fe 3.202019 7.844395 0.954296
Fe 5.175865 5.527044 4.623937
Fe 5.906216 0.107560 0.716977
Fe 6.660611 6.793279 2.119035
Fe 7.390961 12.212763 3.743413
Si 0.287579 11.801765 1.105123
Si 0.298278 8.967983 1.841376
Si 3.890664 2.282264 0.947741
Si 3.901363 5.116046 1.683994
Si 4.476521 8.255392 3.894239
Si 4.487220 11.089175 4.630492
Si 8.079606 4.403455 3.736857
Si 8.090305 1.569673 4.473110
O 0.245933 10.595301 2.262587
O 0.073030 2.171348 0.352412
O 0.795664 0.466636 3.851831
O 0.567141 8.240376 3.294707
O 1.179036 4.815042 4.295272
O 1.432886 8.771182 0.686107
O 1.758744 12.544522 1.146966
O 2.430198 5.858803 1.642151
O 2.756056 2.085463 2.103009
O 3.009906 11.500761 4.025181
O 3.621801 1.554657 5.025746
O 3.393278 7.152356 4.468623
O 4.115912 8.857067 2.436705
O 3.943009 3.909581 0.526529
O 4.434875 9.461857 5.051704
O 4.261972 4.514371 3.141529
O 4.984607 6.219083 1.109610
O 4.756083 11.816782 0.552487
O 5.367979 1.870678 1.553052
O 5.621828 11.285976 3.475224
O 5.947686 7.512636 3.936082
O 6.619140 0.826917 4.431267
O 6.944998 4.600256 4.892126
O 7.198848 8.556397 1.282961
O 7.810743 5.131062 2.283526
O 7.582220 12.904802 1.726402
O 8.304854 11.200091 5.225821
O 8.131951 2.776138 3.315646
