44

Li 7.048862 3.806545 3.020812
Li 0.836462 5.892796 0.593007
Cr 6.157892 9.665753 2.465654
Cr 12.370292 0.033589 -0.354579
P 5.113725 1.706395 -0.124305
P 7.215616 7.973082 -0.179959
P 1.782710 4.579757 3.146215
P 1.003216 1.726260 2.640274
P 7.995110 5.119584 0.325982
P 3.053606 0.162910 1.254053
P 4.471698 4.554917 4.503357
P 10.684098 5.144424 1.683124
P 11.326125 7.992946 2.303500
P 9.266006 9.536431 3.681858
O 3.140343 3.943539 3.793851
O 8.094745 0.574269 3.019839
O 3.630589 1.152970 0.133962
O 12.421594 1.267685 1.178463
O 0.705020 1.476890 4.079515
O 10.433179 0.584492 4.329212
O 4.220779 9.114849 1.901407
O 5.443616 1.472864 3.682263
O 4.221823 5.714386 0.157865
O 8.698354 8.550736 4.796380
O 8.231616 4.049747 4.560113
O 7.448208 6.430479 4.792521
O 1.882345 9.125073 0.592034
O 7.116689 4.749515 1.432697
O 4.920917 3.259978 0.139033
O 11.133317 6.439364 2.566838
O 11.656016 8.226477 0.862030
O 2.485954 1.148606 2.368575
O 6.917420 8.222452 1.259282
O 9.842989 8.546371 2.561767
O 11.666241 4.899399 0.624994
O 1.235808 3.268862 2.364716
O 6.119102 1.244561 0.948055
O 6.209194 8.431657 3.998697
O 0.904289 4.949826 4.252930
O 9.352743 5.755803 0.973618
O 2.019216 5.649595 2.132308
O 5.453841 4.799942 3.445228
O 10.434223 3.984955 2.585670
O 12.331502 8.454780 3.375860
