40

Bi 2.023916 2.047776 8.656598
Bi 2.023916 2.382952 3.921076
Bi 5.154669 6.478505 2.872625
Bi 5.154669 6.813681 -1.862897
P 0.432847 4.129616 6.650158
P 0.432847 0.301112 1.914636
P 3.187435 5.176527 5.511449
P 3.991150 0.745798 6.017774
P 3.187435 8.115659 0.775927
P 3.991150 3.684931 1.282252
P 6.745738 8.560345 4.879065
P 6.745738 4.731841 0.143543
O 0.618973 3.751401 8.057986
O 0.964845 0.395079 7.572205
O 0.619548 2.889402 5.768147
O 0.618973 0.679328 3.322464
O 1.571012 5.259833 6.122535
O 0.964845 4.035649 2.836683
O 0.619548 1.541326 1.032625
O 1.571012 8.032353 1.387013
O 3.116726 0.746144 4.877604
O 3.767199 8.264488 6.729296
O 3.748908 1.960854 6.921466
O 3.429677 6.391583 4.607757
O 3.411386 3.833759 4.799927
O 4.061859 5.176872 6.651619
O 3.116726 3.684585 0.142082
O 3.767199 5.027698 1.993774
O 3.748908 2.469874 2.185944
O 3.429677 6.900603 -0.127765
O 3.411386 0.596970 0.064396
O 4.061859 8.115314 1.916097
O 5.607573 0.829105 5.406688
O 6.559037 7.320131 5.761076
O 6.213740 4.825808 3.957018
O 5.607573 3.601624 0.671166
O 6.559611 8.182129 3.471237
O 6.559037 5.972055 1.025554
O 6.213740 8.466378 -0.778504
O 6.559611 5.110057 -1.264285
