28

Li 2.009632 2.541904 8.629972
Li 6.069130 2.298199 9.765441
Li 6.159869 2.292971 4.942669
Li 4.015946 -0.240007 3.911050
Mn 2.185204 2.531112 5.034159
Mn 4.108251 2.416056 2.086190
Mn 4.263405 -0.255358 9.738797
Mn 5.162101 1.006139 7.025367
Mn 5.162671 -1.624476 7.042797
Sb 1.040868 3.912855 2.106545
Sb 1.040769 1.287072 2.122711
Sb 2.120305 -0.127071 7.085904
O 1.022506 4.025330 5.965608
O 0.140377 2.653952 3.258002
O 1.886057 2.549339 0.929229
O 0.143435 -0.008332 3.204808
O 0.144178 -0.014340 8.114359
O 1.017188 1.178146 5.987253
O 2.931500 3.692051 3.196297
O 2.930126 1.281168 3.212039
O 1.902234 -0.114160 1.001421
O 4.327796 2.401098 6.014676
O 3.193533 1.007667 8.223387
O 3.199426 -1.392092 8.234484
O 3.997782 -0.234420 5.892723
O 5.279262 1.095210 1.000900
O 5.937866 -0.353978 8.075095
O 5.280011 -1.727580 1.017622
