10

Li 1.349435 3.200799 0.731765
Li 4.048305 -0.732313 5.014492
Mn 0.000000 0.000000 0.000000
Mn 2.698870 1.234243 2.873128
F 0.526263 1.028707 1.704682
F 3.225133 2.262950 1.669614
F 1.349435 3.200799 3.639961
F 4.048305 -0.732313 2.106295
F 2.172606 0.205536 4.076643
F 4.871476 1.439778 4.041574
