22

Li 0.311569 1.592034 6.026704
Li 5.362499 4.913060 2.118403
Cu 1.745661 6.070687 7.377247
Cu 1.235148 2.952321 3.816954
Cu 4.438919 3.552772 4.328153
Cu 3.928407 0.434407 0.767860
C 0.135826 2.136157 1.400902
C 2.603251 5.305983 2.373711
C 3.070817 1.199111 5.771395
C 5.538242 4.368937 6.744205
O 0.038493 1.366569 0.376128
O 1.558842 5.350668 1.548349
O 1.224231 2.122758 2.135730
O 0.883333 3.464559 5.597571
O 2.587471 4.636748 3.458699
O 1.971546 0.555285 6.067468
O 3.702522 5.949809 2.077639
O 3.086596 1.868346 4.686407
O 4.790734 3.040535 2.547535
O 4.449836 4.382336 6.009377
O 4.115225 1.154426 6.596757
O 5.635575 5.138524 7.768986
