36

Li 1.553598 1.849260 2.322328
Li 1.613259 3.944526 7.427021
Li 7.070315 5.319596 7.323290
V 3.222751 4.435455 5.179682
V 5.786961 8.055294 9.477787
V 7.684778 10.662853 12.557837
S 0.319401 5.680389 5.421713
S 4.216494 2.673740 7.684050
S 6.773614 7.313374 5.312066
S 2.256389 5.308104 9.347988
S 4.864170 9.842341 7.062584
S 8.653793 6.740289 9.329747
O 1.002263 2.747032 4.861395
O 2.709110 5.273914 3.605783
O 0.045898 7.029911 4.959027
O 4.691598 3.460942 5.014124
O 0.238100 5.318123 6.606391
O 2.081862 5.705593 5.476685
O 3.437517 3.723196 6.862179
O 3.081644 1.868527 8.357046
O 5.684888 5.988682 5.838577
O 0.408671 5.279918 8.883900
O 2.491193 4.123395 9.023110
O 3.191621 9.026900 6.393630
O 5.988018 3.588132 8.336023
O 6.433686 8.533918 5.538419
O 8.613428 7.406819 12.732897
O 3.401607 6.653165 8.914826
O 6.072000 10.740714 6.395605
O 5.721813 8.906003 7.906799
O 6.934116 6.712836 9.361222
O 8.681817 6.937176 8.180188
O 4.495611 9.207819 9.701546
O 8.899354 5.363336 9.880114
O 6.181062 7.198441 11.068374
O 8.058534 9.647600 9.891471
