24

Li 0.838578 1.304727 7.506655
Li 2.489219 3.476142 7.931048
Li 4.374055 5.787561 8.210374
Li 1.664765 2.367437 5.412971
Li 3.513077 4.689716 5.754450
Li 0.966092 1.144876 2.498414
Li 4.118591 5.773103 3.487003
Li 2.556656 3.568012 3.098494
Li 1.740879 2.275442 0.456399
Li 3.364516 4.683016 0.993454
Fe 0.024262 4.378227 7.956537
Fe 0.130404 4.522825 3.133777
O 0.428072 2.857799 7.726381
O 2.103869 5.140745 3.300803
F 1.317740 3.979752 10.308076
F 2.190914 5.231439 8.203619
F 1.317586 3.979542 5.458419
F 0.373046 2.754950 2.894012
F 4.667788 4.231213 8.126259
F 3.125774 1.892352 7.674425
F 3.833494 3.065246 5.540115
F 4.734165 4.083471 3.231791
F 2.918700 1.848423 2.834056
F 3.786755 3.001573 0.678670
