13

Li 1.580493 2.088646 2.962753
V 4.868596 6.353863 1.287190
V 4.882077 6.371953 4.532489
Si 1.713847 2.231519 6.112074
Si 3.193952 4.166378 2.948023
O 1.185676 1.541012 4.750672
O 1.123979 1.459442 1.131798
O 1.064446 3.652685 6.153908
O 1.393902 4.019507 2.886238
O 3.520546 2.322022 6.154578
O 3.779053 2.726277 2.886409
O 3.742712 4.879132 4.266598
O 3.802944 4.956043 1.650692
