22

Li 1.914455 3.263710 1.176239
Li 6.697811 0.024128 4.158360
Ni 3.012140 4.880346 4.053595
Ni 5.600126 1.640764 1.281004
C 0.599724 4.838283 3.658552
C 8.012542 1.598701 1.676047
S 3.609246 1.605913 3.775461
S 5.003020 4.845495 1.559137
O 0.615811 1.790504 1.537533
O 1.096006 4.799745 4.839462
O 1.493393 4.700368 2.703160
O 2.782468 0.425707 4.051509
O 2.857223 2.790965 4.276770
O 3.672735 4.756270 0.924836
O 3.865883 1.769654 2.303234
O 4.746383 5.009236 3.031365
O 4.939531 1.516688 4.409763
O 5.755043 6.030547 1.057829
O 5.829798 3.665289 1.283090
O 7.118873 1.460786 2.631439
O 7.516260 1.560163 0.495136
O 7.996454 5.030086 3.797066
