84

Li 0.000843 0.007471 0.007706
Li 0.000843 0.007471 3.057493
Li 2.381800 5.252530 0.005953
Li 2.381800 5.252530 3.059246
Li 4.766231 0.006343 0.005284
Li 4.766231 0.006343 3.059915
Li 7.150133 5.259621 0.006602
Li 7.150133 5.259621 3.058597
Li 9.531590 0.014818 0.005358
Li 9.531590 0.014818 3.059841
Li 11.912275 5.262798 0.007792
Li 11.912275 5.262798 3.057407
Mn 0.118301 7.547764 4.597799
Mn 2.261984 2.299609 4.597799
Mn 2.500187 8.210430 1.532600
Mn 4.886962 7.555864 4.597799
Mn 7.028015 2.302212 4.597799
Mn 9.651235 7.556143 4.597799
Fe 4.637637 2.962059 1.532600
Fe 7.276011 8.218684 1.532600
Fe 9.405055 2.966660 1.532600
Fe 11.800794 2.305315 4.597799
Fe 12.037667 8.225275 1.532600
Fe 14.162837 2.969748 1.532600
P 0.406140 6.221834 1.532600
P 1.963623 0.993870 1.532600
P 2.799420 9.538874 4.597799
P 4.361406 4.278692 4.597799
P 5.191185 6.231610 1.532600
P 6.728867 0.988634 1.532600
P 7.550254 9.535000 4.597799
P 9.135014 4.271374 4.597799
P 9.947723 6.244962 1.532600
P 11.503576 0.998443 1.532600
P 12.309037 9.549952 4.597799
P 13.883818 4.279181 4.597799
O 0.985693 4.776836 1.532600
O 1.047081 6.951961 0.298330
O 1.047081 6.951961 2.766869
O 1.120649 4.248059 4.597799
O 1.257134 9.505709 4.597799
O 1.315992 1.722357 0.298967
O 1.315992 1.722357 2.766232
O 1.377980 10.054182 1.532600
O 3.389223 0.468722 4.597799
O 3.429681 8.803226 3.363185
O 3.429681 8.803226 5.832412
O 3.498675 1.023098 1.532600
O 3.652444 6.266466 1.532600
O 3.741710 3.540086 3.354431
O 3.741710 3.540086 5.841166
O 3.752646 5.711390 4.597799
O 5.766106 4.785210 1.532600
O 5.831797 6.969721 0.301015
O 5.831797 6.969721 2.764184
O 5.899032 4.259572 4.597799
O 6.017147 9.513549 4.597799
O 6.083109 1.717333 2.764521
O 6.083109 1.717333 0.300678
O 6.160294 10.043468 1.532600
O 8.158585 0.459960 4.597799
O 8.172424 8.794344 3.353990
O 8.172424 8.794344 5.841607
O 8.272526 1.030205 1.532600
O 8.409769 6.286176 1.532600
O 8.508298 3.540336 5.842141
O 8.508298 3.540336 3.353456
O 8.536204 5.706561 4.597799
O 10.520156 4.794378 1.532600
O 10.597084 6.976410 0.301168
O 10.597084 6.976410 2.764031
O 10.676642 4.237560 4.597799
O 10.774757 9.513254 4.597799
O 10.865981 1.730280 2.775145
O 10.865981 1.730280 0.290054
O 10.924081 10.058350 1.532600
O 12.900241 0.484487 4.597799
O 12.939613 8.812707 3.355952
O 12.939613 8.812707 5.839646
O 13.041330 1.034261 1.532600
O 13.162133 6.284310 1.532600
O 13.255201 3.538654 5.839805
O 13.255201 3.538654 3.355792
O 13.281320 5.715048 4.597799
