24

Fe 3.835138 2.236865 1.509157
Fe 4.794899 0.936278 5.759745
Fe 4.794830 -1.541141 5.829976
Co 0.957920 3.650763 1.608303
Co 1.929412 2.356740 3.977895
Co 0.958809 1.185963 1.678384
Co 1.940380 -0.122792 5.910500
Co 3.792127 -0.239044 8.230604
O 1.035452 3.630741 4.941925
O 0.269092 2.462216 2.771967
O 1.879138 2.359842 0.661601
O 0.053165 -0.002784 2.712997
O 0.092843 -0.004095 6.968557
O 1.034563 1.196458 5.011330
O 2.693724 3.395319 2.687047
O 2.693156 1.221572 2.749614
O 1.902485 -0.119609 0.820587
O 3.783700 2.239602 4.816678
O 2.912835 0.854053 7.045099
O 2.911791 -1.224044 7.104081
O 3.777643 -0.240324 4.882846
O 4.796700 0.919323 0.553044
O 5.463913 -0.343783 7.002505
O 4.796184 -1.521257 0.622214
