40

Li 18.531662 1.430123 2.411482
Li 16.477540 -0.000000 1.191024
Li 14.406869 1.430123 5.696503
Li 12.335582 -0.000000 4.475971
Li 10.283270 1.430123 3.254757
Li 8.238430 2.860246 2.030595
Li 4.115366 2.860246 5.306388
Li 6.163088 1.430123 0.792029
Li 2.069312 1.430123 4.096546
Li 20.578519 -0.000000 3.634712
Co 14.407096 1.430123 2.832636
Co 6.140674 1.430123 3.665338
Co 4.117219 -0.000000 2.445932
Co 2.091355 1.430123 1.224814
Ni 18.525199 1.430123 5.278286
Ni 16.462041 2.860246 4.044427
Ni 12.350421 -0.000000 1.621650
Ni 8.214020 2.860246 4.874324
Ni 10.289445 1.430123 0.387535
Ni 0.020479 -0.000000 0.016431
O 20.449965 1.430123 5.166121
O 18.532979 2.860246 3.926608
O 18.508569 -0.000000 0.901628
O 16.599075 1.430123 5.383030
O 14.393368 -0.000000 4.127874
O 16.312927 1.430123 2.726355
O 12.214293 1.430123 6.007528
O 14.420350 2.860246 1.537935
O 12.501594 1.430123 2.940040
O 10.305704 2.860246 4.763595
O 10.281665 -0.000000 1.740026
O 6.136208 -0.000000 4.958898
O 8.057537 1.430123 3.543222
O 8.365502 1.430123 0.500773
O 6.067424 -0.000000 2.372882
O 2.096747 -0.000000 5.658256
O 4.202098 1.430123 3.716861
O 2.165470 -0.000000 2.518431
O 4.031496 1.430123 1.173333
O 0.174883 1.430123 1.346561
