38

Li 3.743507 4.232973 2.545926
Li 7.253719 9.103598 5.811099
Mn 0.252291 3.440288 3.553633
Mn 3.413451 8.310913 1.877760
Mn 4.044420 1.377705 8.967217
Mn 6.952805 6.248330 7.326962
C 1.876361 1.059634 2.800097
C 1.789381 5.930259 2.631297
C 1.889741 4.673151 5.789417
C 1.776001 9.543776 7.579131
C 5.599494 0.158714 3.319100
C 5.397732 5.029339 5.037924
C 5.472989 3.888503 8.296751
C 5.524236 8.759128 7.997429
O 0.844880 1.464003 3.414290
O 1.608696 4.637926 2.694602
O 1.006202 6.784216 3.175021
O 2.659540 1.913591 2.256372
O 2.057046 9.508551 2.736791
O 2.820862 6.334628 2.017104
O 0.844946 9.380356 6.673526
O 1.582112 3.638805 5.080261
O 1.293435 5.833294 5.600775
O 2.372307 0.962669 7.767774
O 2.083630 8.509430 8.288287
O 4.504119 5.141812 4.096058
O 2.820796 4.509731 6.695022
O 5.417351 1.128904 2.514396
O 4.871595 8.786881 3.191804
O 6.125631 3.916255 5.165221
O 5.579875 5.999529 5.842629
O 6.493107 0.271187 4.260967
O 4.553306 3.425384 9.016300
O 5.198601 0.272404 7.918869
O 4.966787 7.924624 8.745185
O 6.030439 3.053999 7.548995
O 5.798625 5.143029 8.375310
O 6.443920 8.296009 7.277880
