14

Li 0.054236 1.910004 4.574883
Li 2.588119 3.754927 1.563390
Fe 0.052528 4.751493 6.092095
Fe 2.576645 0.912762 3.074599
Si 0.031379 4.726879 3.061292
Si 2.556957 0.937810 0.043697
O 0.704415 0.573198 3.194755
O 0.608968 4.016445 1.683905
O 0.364743 3.844067 4.421537
O 0.921153 0.772391 5.996264
O 3.234027 5.092977 0.184428
O 2.890063 1.820478 1.404309
O 3.131781 1.649335 4.764918
O 3.449971 4.894428 2.985721
