34

V 7.613423 10.471606 12.305475
Fe 1.271481 1.748813 2.055079
Fe 3.172070 4.362908 5.126974
Fe 5.691369 7.827986 9.198884
P 0.297231 5.821745 5.420610
P 4.146666 2.422877 7.578055
P 6.648913 7.012580 4.930497
P 2.210068 5.196820 9.392888
P 4.741225 9.773039 6.754360
P 8.557088 6.360579 8.918743
O 1.224544 2.653564 4.989946
O 2.361958 5.130625 3.553706
O 0.534736 7.238605 4.714004
O 4.570298 3.434785 4.640077
O 1.861707 5.321210 5.674628
O 8.814454 10.553121 11.201066
O 2.553784 1.791869 8.028116
O 4.007431 3.683281 6.724342
O 5.101063 6.084074 5.332022
O 1.998921 3.796009 9.007675
O 0.629337 5.729666 8.795378
O 3.227108 9.160235 5.854788
O 5.683082 10.485157 11.133473
O 8.165680 6.448708 5.447896
O 6.971704 8.490808 12.365911
O 3.713151 6.198694 8.985512
O 4.994036 8.555368 7.625935
O 6.336969 10.354986 6.237237
O 8.767596 6.290779 7.755248
O 6.973025 6.812716 8.732274
O 4.343818 8.786046 9.666670
O 8.260255 4.858169 9.577876
O 6.443004 7.072861 10.759605
O 7.642909 9.489597 9.361456
