28

Li 1.959919 1.143011 5.681690
Li 5.146488 6.825540 -1.104748
Ni 1.153476 1.188401 2.592454
Ni 5.952931 6.780150 1.984487
P 1.066629 4.047526 4.241004
P 2.086320 5.827692 -0.277514
P 2.697784 5.897383 2.519755
P 4.408623 2.071168 2.057187
P 5.020087 2.140859 4.854456
P 6.039778 3.921025 0.335938
O 0.208026 2.429336 1.407956
O 1.095737 2.518186 4.162785
O 0.954817 6.815166 -0.058114
O 1.651657 6.996931 2.725398
O 1.493639 4.415193 -0.906296
O 2.323411 4.619099 3.394755
O 2.521296 5.208730 1.101112
O 2.960941 1.684071 1.836673
O 3.824960 1.686945 5.625734
O 3.281447 6.281606 -1.048793
O 4.145466 6.284480 2.740268
O 4.585111 2.759821 3.475829
O 4.782996 3.349452 1.182186
O 5.612768 3.553358 5.483238
O 5.454750 0.971620 1.851544
O 6.151590 1.153385 4.635056
O 6.010670 5.450365 0.414156
O 6.898381 5.539215 3.168985
