96

Li 11.219973 7.451808 7.522204
Li 2.790459 8.848654 5.014803
Li 2.850729 8.799831 0.000000
Li 5.578785 12.021582 7.522204
Li 5.703591 1.057129 2.507401
Li 8.431647 4.278880 0.000000
Li 8.491917 4.230056 5.014803
Li 0.062403 5.626903 2.507401
Fe 1.828602 7.674310 7.522204
Fe 3.812586 9.974175 2.507401
Fe 7.469790 3.104536 7.522204
Fe 9.453774 5.404401 2.507401
Si 0.255692 2.707262 9.955085
Si 0.893034 3.456732 4.565526
Si 0.470938 9.214861 3.060735
Si 2.704149 0.723833 9.955085
Si 2.288878 5.074817 9.580329
Si 3.352310 1.464539 4.565526
Si 2.937039 5.815522 4.940283
Si 2.007304 10.995842 6.968871
Si 3.633884 6.652644 1.954068
Si 4.748154 3.082624 9.580329
Si 5.385496 3.832094 4.940283
Si 5.170250 8.433624 8.075537
Si 6.112126 4.645087 1.954068
Si 5.896881 9.246617 5.089323
Si 6.534222 9.996087 0.449276
Si 7.648492 6.426067 8.075537
Si 9.275072 2.082869 3.060735
Si 8.345337 7.263189 5.089323
Si 7.930066 11.614172 5.464079
Si 8.993498 8.003894 0.449276
Si 8.578227 12.354877 0.074520
Si 10.811438 3.863849 6.968871
Si 10.389342 9.621979 5.464079
Si 11.026684 10.371449 0.074520
O 0.551607 0.639431 6.918983
O 0.022001 3.886593 3.272309
O 1.267383 1.469171 0.206239
O 0.041700 8.120844 4.197149
O 1.085218 4.091641 0.118720
O 0.283030 8.433458 1.634946
O 2.000817 2.319379 4.193218
O 1.678141 4.778967 5.133523
O 1.078392 8.471468 9.173027
O 1.697885 5.829304 8.287112
O 1.850265 9.449565 6.641916
O 2.598907 6.049319 0.817654
O 2.013487 9.638774 3.387690
O 3.943303 0.710051 3.272309
O 2.873610 6.334899 3.379857
O 2.771200 7.100170 5.871381
O 3.963047 1.760389 0.118720
O 3.640371 4.219977 9.208020
O 2.869988 10.548315 0.856578
O 2.767578 11.313586 8.394659
O 4.555970 2.447714 5.133523
O 3.627701 8.009711 8.402492
O 3.042281 11.599166 5.832456
O 4.373805 5.070185 5.221041
O 3.790923 8.198921 1.627113
O 5.619187 2.652763 8.287112
O 5.089581 5.899924 1.904181
O 4.562796 9.177017 4.158224
O 5.682888 3.551069 0.817654
O 5.924218 3.863684 3.379857
O 5.358158 9.215027 6.649749
O 5.599488 9.527642 9.211952
O 6.719580 3.901694 5.871381
O 6.192795 7.178787 8.125425
O 5.663189 10.425948 1.742493
O 7.491453 4.879790 8.402492
O 6.908571 8.008526 4.808564
O 8.240095 1.479545 4.197149
O 7.654675 5.069000 1.627113
O 6.726406 10.630996 4.896082
O 8.514798 1.765124 1.634946
O 8.412388 2.530396 9.173027
O 7.642005 8.858734 0.821585
O 7.319329 11.318322 9.910885
O 8.511176 5.978541 4.158224
O 8.408766 6.743812 6.649749
O 7.339073 12.368660 6.757296
O 9.268889 3.439936 6.641916
O 8.683469 7.029392 9.211952
O 9.432111 3.629146 3.387690
O 9.584491 7.249406 1.742493
O 10.203984 4.607243 0.856578
O 9.604235 8.299744 4.896082
O 9.281559 10.759332 5.836388
O 10.999346 4.645253 8.394659
O 10.197158 8.987070 9.910885
O 11.240676 4.957867 5.832456
O 10.014993 11.609540 9.823367
O 11.260375 9.192118 6.757296
O 10.730769 12.439280 3.110622
