36

Li 0.000000 0.000000 0.000000
Li 4.305102 5.882775 6.912722
Co 3.065741 4.189230 4.922674
Co 1.239361 1.693545 1.990048
Co 5.544463 7.576319 8.902771
Co 7.370843 10.072004 11.835396
S 0.385134 5.781563 5.256278
S 4.690236 9.468169 6.482053
S 2.152551 5.137556 9.143309
S 6.457653 6.627993 4.682136
S 3.919968 2.297380 7.343392
S 8.225069 5.983986 8.569167
O 0.519075 7.034141 4.411996
O 0.782736 5.837845 8.810557
O 4.243091 8.776648 9.195213
O 5.230415 2.674333 8.325438
O 1.987390 5.398896 5.554106
O 4.824177 8.148652 7.203786
O 6.292492 10.155055 6.128686
O 8.548193 5.701607 7.513723
O 2.665917 5.115136 3.352149
O 0.925313 2.770765 4.796367
O 1.639185 3.746247 8.771134
O 3.522366 5.939808 8.561241
O 5.087838 5.825741 5.264204
O 7.684891 8.994784 9.029077
O 6.971019 8.019302 5.054311
O 0.062011 6.063942 6.311722
O 5.944287 6.650413 10.473296
O 2.317712 1.610494 7.696759
O 3.786027 3.616897 6.621659
O 6.622814 6.366653 8.271338
O 4.367113 2.988901 4.630232
O 3.379789 9.091216 5.500007
O 7.827467 5.927704 5.014888
O 8.091129 4.731408 9.413449
