33

Li 7.719006 5.300154 3.322851
Li 2.567728 8.116445 3.583815
Li 5.297630 4.448901 1.763638
Li 2.638931 5.902456 1.898328
Li 5.138696 2.009297 0.154978
Li 0.067962 4.781553 0.411862
Ti 5.172467 1.990834 3.014836
Ti 2.603326 3.395420 3.144989
Ti 0.034192 4.800015 3.275141
Ni -0.002249 2.366569 1.621032
Ni 5.228714 6.819615 0.515244
Ni 2.558020 0.966826 1.491329
Ni 5.208908 4.424273 -1.054197
Ni 2.648631 5.824020 -0.924493
Ni 7.787929 10.157503 -1.959721
O 6.409998 8.360319 0.808173
O 6.627553 6.019884 -0.759702
O 3.792099 7.570075 -0.616058
O 6.606645 8.616799 3.470486
O 6.665744 6.130404 1.788043
O 3.895886 7.644732 1.928365
O 6.389091 3.729174 0.123059
O 4.073625 5.313076 0.307797
O 1.414560 6.448834 0.375069
O 6.350892 3.618652 3.298446
O 3.837405 5.004982 3.462936
O 1.310773 6.374170 3.553778
O 3.958506 2.747956 1.811576
O 1.349105 4.174560 1.943769
O 1.133026 1.477763 0.259040
O 3.857554 2.616289 4.346208
O 1.248153 4.042893 4.478401
O 1.369246 1.785857 2.827037
