23

Na 2.170127 3.195833 1.264975
Na 6.768604 3.438032 4.004591
Na 6.791102 6.614222 3.971964
Mn 3.062560 5.064598 4.106306
Mn 5.802973 1.729425 1.204479
P 3.777348 1.722735 3.737347
P 5.106579 5.014310 1.532865
C 0.665463 4.932215 3.773538
C 8.254089 1.749448 1.503614
O 0.551144 1.674947 1.496520
O 1.239908 4.980117 4.946534
O 1.549330 4.958989 2.792133
O 2.943975 0.485942 4.072572
O 2.914204 2.960144 4.105695
O 4.138414 1.796284 2.210760
O 3.786201 4.953295 0.760359
O 5.135761 1.728449 4.497384
O 4.795417 5.017108 3.078083
O 6.018351 3.794341 1.202585
O 5.956979 6.252986 1.169448
O 7.375256 1.723979 2.510232
O 7.620664 1.718772 0.343772
O 8.353862 5.004896 3.745340
