40

Li 0.232452 0.173567 0.130730
Li 6.404840 4.220667 6.009740
Li 4.117850 5.829753 6.790448
Li 2.418034 7.605534 7.927846
Li 5.611092 4.868791 9.470351
Li 7.250919 8.434994 7.103809
Ti 7.300238 9.947043 11.694258
Fe 1.255308 1.721069 1.961503
Fe 3.036857 4.220831 4.891109
Fe 5.560906 7.601516 8.921936
P 0.428752 5.893976 5.228265
P 3.821514 2.199672 7.312555
P 6.415124 6.460970 4.511474
P 2.091952 5.149022 9.232458
P 4.699303 9.579705 6.373743
P 8.202163 5.759747 8.403079
O 1.124351 2.690693 4.816629
O 2.521089 5.134300 3.348666
O 0.500440 7.224192 4.390288
O 4.617750 3.131978 4.597666
O 2.055576 5.479773 5.594674
O 8.487297 10.182981 10.478765
O 2.221443 1.680950 7.758531
O 3.991773 3.643207 6.616192
O 5.083384 5.766262 5.240740
O 1.529472 3.692748 1.702152
O 0.729728 5.980358 8.835688
O 3.250697 1.683085 2.976530
O 5.294085 10.017337 10.777054
O 7.755425 5.648670 4.899194
O 6.957216 7.998773 11.966206
O 3.470558 5.928633 8.574795
O 4.816837 8.196447 7.107785
O 6.326890 10.089304 5.889258
O 8.362506 5.416896 7.232490
O 6.611527 6.234778 8.222077
O 3.963691 8.723980 9.058635
O 7.995828 4.433990 9.296369
O 5.889784 6.377941 10.426179
O 7.717908 8.883542 8.722984
