28

Li 1.932466 2.380968 8.489089
Li 5.797358 -2.898528 9.572159
Li 0.000029 0.000096 4.780762
Li 3.864921 -0.258789 3.697580
Mn 0.977915 3.684797 2.062393
Mn 0.977886 1.204949 2.062372
Mn 3.841436 2.253064 2.062355
Mn 1.955951 -0.130970 6.853763
Mn 4.819472 0.917170 6.853793
Mn 4.819501 -1.562683 6.853772
Ni 1.932484 2.380930 4.688526
Ni 3.864903 -0.258826 9.479929
O 0.918857 3.765561 5.817516
O 0.203477 2.496740 3.169387
O 1.932431 2.380941 1.043128
O 5.797306 -2.898597 2.990682
O 0.000081 0.000020 7.782197
O 0.918868 1.132111 5.817483
O 2.796903 3.446042 3.169339
O 2.796874 1.200030 3.169313
O 1.837598 -0.123016 1.025963
O 3.959789 2.245165 5.817466
O 3.000484 0.922083 7.960745
O 3.000513 -1.323932 7.960719
O 3.864956 -0.258827 5.834531
O 4.878530 0.990017 1.026004
O 5.593910 -0.374631 7.960785
O 4.878519 -1.643421 1.025971
