13

Li 1.647161 2.134806 0.976544
Li 0.453580 3.519965 -0.166755
Li 2.862317 4.693553 1.621819
Li 2.918495 2.791371 -1.610720
Li 5.327232 3.964959 0.177854
Li 4.133650 5.350118 -0.965445
Mn 0.000000 0.000000 0.000000
O 0.540506 3.763178 1.407082
O 1.163880 1.705837 -0.594045
O 3.735011 2.955511 1.433902
O 2.045800 4.529412 -1.422803
O 4.616932 5.779086 0.605144
O 5.240306 3.721745 -1.395982
