20

Li 1.102766 4.564585 -0.043880
Li 2.066725 1.108997 4.004822
Li 2.617134 2.148691 1.206404
Li 3.167544 3.188384 -1.592014
Li 4.131502 -0.267203 2.456688
Mn 0.000000 2.575979 -1.401812
Mn 3.651452 4.014830 2.538216
Mn 1.582817 0.282551 -0.125408
Fe 0.536198 3.504098 2.712952
Fe 4.698070 0.793283 -0.300144
O 0.388555 0.386730 5.664605
O 1.693040 3.409182 4.169287
O 0.708804 1.502615 2.754656
O 1.209477 2.223222 -0.132535
O 2.389663 4.181759 1.367151
O 2.844605 0.115622 1.045657
O 4.024791 2.074159 2.545342
O 4.525465 2.794766 -0.341848
O 3.541229 0.888199 -1.756479
O 4.845713 3.910651 -3.251798
