18

V 1.417142 3.939388 4.778515
V 2.607160 5.101853 1.914045
V 4.107539 0.985747 3.425851
V 5.399691 2.036084 0.685599
Cr 0.561408 0.500483 4.150428
Cu 6.122243 5.457848 1.253377
O 0.258294 5.351372 4.774005
O 0.621363 2.423724 4.739682
O 1.272025 6.380792 1.661495
O 2.438701 4.147292 3.407538
O 2.501190 0.359964 3.517339
O 2.483467 3.966555 0.613951
O 4.422533 1.969351 4.767530
O 4.173222 5.737139 1.872726
O 4.245470 2.032148 2.013705
O 5.406884 -0.300987 3.427281
O 6.200847 3.511120 0.675027
O 6.546990 0.589693 0.942265
