24

V 3.955137 2.364022 1.866621
V 4.991982 0.981660 6.405448
V 4.930167 -1.563738 6.486467
Cr 1.037210 3.825268 1.788106
Cr 1.035762 1.267848 1.852757
Cr 2.039100 -0.108404 6.448217
Te 1.951292 2.495977 4.392631
Te 3.955412 -0.244139 9.027758
O 1.030012 3.817384 5.366973
O 0.278759 2.601732 3.058121
O 2.128625 2.476404 0.869875
O 5.929405 2.249730 2.488029
O 5.975927 -2.901670 7.215698
O 1.003535 1.303779 5.415600
O 2.874708 3.555136 3.012775
O 2.891492 1.300564 3.076268
O 2.042917 -0.135008 0.812790
O 3.878620 2.375683 5.328631
O 3.105719 0.924613 7.671036
O 3.136229 -1.331896 7.698981
O 4.062936 -0.304803 5.475128
O 4.922532 0.945587 0.711713
O 5.708082 -0.393436 7.655610
O 4.919977 -1.564706 0.774930
