17

V 1.381442 4.000477 4.800124
V 2.624507 4.967077 2.017159
V 4.207729 0.841047 3.566258
V 5.339726 1.931806 0.602877
Fe 6.216713 5.385123 1.248210
O 0.175553 5.355743 4.453050
O 0.476333 2.621826 4.886998
O 1.404628 6.274365 2.147912
O 2.472113 3.890221 3.416891
O 2.703240 0.132426 3.546033
O 2.293309 4.093365 0.611348
O 4.234917 1.919630 4.918571
O 4.270488 5.526832 1.940364
O 4.417011 1.719336 2.043372
O 5.420911 -0.507901 3.913131
O 6.112722 3.467448 0.612764
O 6.502772 0.575287 0.473696
