40

Ti 2.081892 1.248946 1.123774
Ti 2.321172 3.850472 6.265650
Ti 6.484957 1.352580 8.513199
Ti 6.724237 3.954107 13.655075
P 0.164305 3.932868 1.714747
P 0.629418 1.185146 7.496076
P 4.238760 1.331342 5.674677
P 5.032483 1.416380 3.004204
P 3.773646 3.786673 11.774645
P 4.567369 3.871711 9.104172
P 8.176711 4.017907 7.282773
P 8.641824 1.270185 13.064102
O 0.844561 0.096048 1.981968
O 1.211036 2.790350 1.842566
O 0.913838 3.814785 4.788040
O 1.083806 4.966673 7.233579
O 0.857955 1.452437 9.050732
O 1.537453 2.223769 6.935468
O 0.752484 1.329474 11.448498
O 3.489226 1.213258 2.601385
O 3.192028 0.188824 5.546859
O 3.558504 2.697575 5.407457
O 3.650581 3.931000 7.822223
O 5.486870 2.837906 2.741707
O 2.865611 4.825296 12.335253
O 3.545110 4.053964 10.219989
O 5.261019 1.149089 4.558860
O 5.940518 0.377757 2.443596
O 3.319259 2.365147 12.037142
O 5.155548 1.272048 6.956626
O 5.247625 2.505478 9.371392
O 5.614101 5.014229 9.231990
O 5.316903 3.989795 12.177464
O 8.053645 3.873579 3.330351
O 7.268676 2.979284 7.843381
O 7.948174 3.750615 5.728117
O 7.722324 0.236380 7.545270
O 7.892291 1.388268 9.990809
O 7.595093 2.412702 12.936283
O 7.961569 5.107004 12.796881
