36

Li 0.478774 1.655969 5.124075
Li 1.832863 6.363947 1.551068
Li 1.832863 3.571864 1.551068
Li 3.467645 0.259927 4.910073
Li 3.467645 3.052010 4.910073
Li 4.821735 4.967906 1.765070
Li 5.779282 1.655969 4.952940
Li 7.133371 6.363947 1.807937
Li 7.133371 3.571864 1.807937
Li 8.768154 3.052010 5.166942
Li 8.768154 0.259927 5.166942
Li 10.122243 4.967906 1.593935
Mn 0.839092 4.967906 4.928225
Mn 4.461417 1.655969 1.569220
Mn 6.139600 4.967906 5.148790
Mn 9.761925 1.655969 1.789785
F 9.583510 1.655969 6.380450
F 1.613644 0.230140 4.960189
F 1.613644 3.081797 4.960189
F 1.256443 1.655969 1.612578
F 1.044603 4.967906 2.821295
F 4.255905 1.655969 6.180300
F 4.044065 4.967906 4.971583
F 3.686864 6.393734 1.601184
F 3.686864 3.542077 1.601184
F 6.318015 4.967906 3.021445
F 4.283001 1.655969 3.696565
F 6.914153 3.081797 5.116826
F 6.914153 0.230140 5.116826
F 6.556951 1.655969 1.746427
F 6.345111 4.967906 0.537710
F 9.556414 1.655969 3.896714
F 9.344573 4.967906 5.105432
F 8.987372 6.393734 1.757821
F 8.987372 3.542077 1.757821
F 1.017507 4.967906 0.337560
