28

Li 1.971411 2.409352 8.622381
Li 5.882526 2.171502 9.604316
Li 0.014430 0.000389 4.766304
Li 3.925544 -0.261434 3.776883
V 0.978405 3.709364 2.117831
V 1.004281 1.234140 2.028423
V 3.885392 2.273190 2.097313
V 2.011564 -0.153068 6.866441
V 4.918550 0.911713 6.881396
V 4.892674 -1.560205 6.792037
Cr 1.985263 2.422625 4.702249
Cr 3.911692 -0.246391 9.467740
O 0.981460 3.764070 5.865697
O 0.237099 2.572502 3.297564
O 2.025085 2.502482 0.987760
O 5.869358 2.128479 3.025496
O 0.027598 5.047604 7.874715
O 1.004918 1.168633 5.833988
O 2.832243 3.490147 3.315735
O 2.887763 1.263148 3.264510
O 1.921594 -0.149259 1.001350
O 3.975362 2.265495 5.843013
O 3.064713 0.929345 8.082848
O 3.009193 -1.290561 8.031729
O 3.871870 -0.161447 5.753328
O 4.915496 0.966814 1.018303
O 5.659851 -0.319860 8.059710
O 4.892038 -1.625636 0.986640
