24

Li 0.025345 0.647919 1.220151
Li 4.478819 11.051269 3.602467
Li 2.277427 6.497514 1.191158
Li 2.226737 5.201675 3.631461
V 0.120545 8.051133 3.475526
V 4.383619 3.648055 1.347092
V 2.131537 9.599776 1.064217
V 2.372627 2.099413 3.758402
O 1.072239 9.438986 4.556357
O 1.179843 8.211923 2.145048
O 3.324321 3.487265 2.677571
O 3.431925 2.260203 0.266262
F 1.072941 2.267795 2.076383
F 1.133270 0.797470 4.376319
F 1.169096 10.977676 1.991071
F 1.082986 6.673234 4.402380
F 1.118812 5.052124 1.965010
F 1.179141 3.581800 4.487688
F 3.325023 8.117389 0.334926
F 3.421178 5.025955 0.420238
F 3.385352 6.647064 2.857609
F 3.335068 0.721513 2.831547
F 3.370894 10.901719 0.446300
F 3.431222 9.431394 2.746240
