16

Li 0.000000 0.000000 2.436438
Li 2.969187 1.481634 3.883384
Li 2.969187 4.054731 3.003350
Mn 2.969187 4.054731 0.566913
Co 0.000000 2.573097 1.556404
Co 0.000000 0.000000 0.000000
Co 2.969187 1.481634 1.446946
Co 0.000000 2.573097 -0.880034
O 2.930213 2.822670 4.719296
O 5.731753 4.236997 6.064397
O 2.966817 5.253384 3.897489
O 5.851993 6.777731 5.256027
O 0.086380 1.331731 0.750673
O 2.971556 2.856078 2.109212
O 0.206620 3.872465 -0.057697
O 3.008160 5.286792 1.287405
