22

Li 1.700414 4.585991 10.858532
Li 4.328039 3.685321 4.764918
Li 4.731262 6.491507 8.054944
Cr 1.277671 1.753022 7.565740
Cr 3.899607 5.350439 3.013968
Fe 0.419608 0.575722 2.521024
Fe -0.008855 2.301715 10.669480
Fe 2.689820 1.376692 4.479796
Fe 2.173616 2.982301 2.769480
Fe 2.974799 4.081560 7.806140
O 0.674297 1.956805 4.059249
O 0.265350 3.593448 2.636001
O 1.478496 3.163369 9.036305
O 1.877504 1.544383 1.225387
O 2.802027 2.709703 6.339549
O 1.192753 5.018483 7.715849
O 4.031792 2.302427 2.895865
O 2.430693 4.436603 4.315739
O 3.145230 5.407995 9.356545
O 5.137168 3.666458 7.950304
O 3.715474 3.996219 1.478042
O 4.419532 4.971204 6.484525
