40

K 0.863220 8.780761 1.665707
K 0.611995 2.411091 6.412756
K 1.923716 4.356433 4.255219
K 2.174942 6.835419 9.776037
K 3.398931 2.013238 2.065814
K 3.650157 4.492224 7.586633
K 4.961878 6.437566 5.429096
K 4.710653 0.067896 10.176144
Li 0.409011 2.083859 3.210183
Li 1.112478 0.028422 4.751120
Li 1.674458 4.452750 1.169806
Li 0.603500 4.723971 8.361416
Li 2.377926 6.508187 2.710743
Li 2.183437 0.299642 7.827377
Li 3.390436 8.549015 4.014474
Li 3.195947 2.340470 9.131109
Li 4.970373 4.124686 3.480435
Li 3.899415 4.395907 10.672045
Li 4.461395 8.820235 7.090732
Li 5.164862 6.764798 8.631669
Co 0.881753 2.536158 9.861166
Co 1.905183 6.960486 6.327627
Co 3.668690 1.888171 5.514225
Co 4.692120 6.312499 1.980685
O 0.647093 2.728687 1.415973
O 0.595958 5.951916 1.648054
O 0.670292 8.405091 6.590393
O 0.924209 5.393867 6.541643
O 2.190978 1.527579 4.272871
O 2.139843 7.153015 4.504953
O 1.862727 0.969538 9.647150
O 2.116645 3.980763 9.598400
O 3.457228 4.867894 2.243451
O 3.711146 7.879118 2.194702
O 3.434030 1.695642 7.336899
O 3.382895 7.321069 7.568980
O 4.649663 3.454790 5.300208
O 4.903581 0.443565 5.251459
O 4.977914 2.896741 10.193797
O 4.926780 6.119970 10.425879
