35

Li 6.350091 -0.221007 5.235734
Cr 2.931431 -0.961984 3.725739
Cr 5.321082 4.663644 4.997777
Cr 7.047134 0.820158 8.129265
Ni 1.325824 2.921048 0.647954
S 0.313334 1.814331 2.796613
S 4.460434 3.658210 2.293150
S 2.106165 4.823664 5.934557
S 6.219366 -1.115845 2.788859
S 3.818241 0.052666 6.470751
S 7.926107 1.951121 5.992602
O 2.491133 6.002909 -0.087905
O 0.894738 6.759763 1.895834
O 0.028697 2.311843 1.669916
O 0.208365 3.002106 3.733408
O 2.901683 3.331590 2.056467
O 0.392449 5.350764 5.377187
O 4.275083 5.123965 2.130499
O 1.952393 0.858208 3.035126
O 5.586923 2.761368 1.538070
O 3.155321 4.474598 5.061810
O 5.215972 3.457057 3.498408
O 2.387191 3.577374 6.480482
O 5.915327 0.160914 2.237326
O 3.172743 0.255714 5.251033
O 5.139964 -0.696635 3.678892
O 2.762748 0.941944 7.227916
O 6.296360 2.925210 5.744620
O 4.063736 -1.413061 6.601836
O 7.887561 -1.609078 3.362194
O 5.449422 0.379775 6.695516
O 7.974371 0.741329 5.082659
O 8.158314 1.507462 7.132220
O 7.388254 -3.051264 6.883071
O 5.727531 -2.234926 8.820612
