16

V 3.616005 4.157893 3.649421
V 2.419504 1.253452 4.205433
V 1.445167 3.126000 7.885270
V 5.091403 2.492474 8.566206
O 2.997218 4.907355 5.439122
O 2.159748 4.528891 3.029746
O 2.227086 4.528368 7.873953
O 3.119527 2.690861 3.731592
O 3.182661 2.671784 8.639869
O 0.304889 3.628078 9.707473
O 0.558319 1.371641 4.221470
F 4.930584 5.744732 7.254078
F 4.829825 5.847346 3.702441
F 4.990566 3.661705 1.965416
F 2.490580 2.254219 6.098904
F 0.521661 1.375529 7.968416
