22

Mn 1.079221 1.477387 6.987838
Mn 1.081999 4.269898 7.032852
Mn 2.162173 5.747861 2.398245
Mn 4.314183 3.111128 6.966954
Mn 5.397905 4.593947 2.332370
Mn 5.396688 7.384825 2.373935
F 0.096627 5.623064 3.537522
F 0.016969 5.514072 8.178528
F 1.121436 1.241252 1.398351
F 0.311357 2.758061 7.943595
F 0.857787 4.421706 1.488501
F 2.964998 1.717718 7.885773
F 2.143286 3.030612 5.885433
F 2.936028 4.314363 7.953799
F 4.570636 3.009286 1.382215
F 1.854941 5.786077 6.136394
F 3.196425 4.670656 3.313949
F 4.219862 5.871918 1.257198
F 3.462872 7.070169 3.322235
F 5.666114 4.508189 6.030737
F 6.222551 6.174913 3.265091
F 5.695059 7.499178 6.069117
