28

Li 1.897730 2.334360 8.230497
Li 5.660410 -2.836645 9.125222
Li 0.010940 0.005949 4.566059
Li 3.773620 -0.251472 3.629241
Mn 1.884278 2.306618 4.461370
Mn 3.787072 -0.281040 9.022510
Co 0.957800 3.604776 1.958096
Co 0.958986 1.193457 1.966162
Co 3.738293 2.209107 1.974807
Co 1.933057 -0.126254 6.537903
Co 4.713550 0.891035 6.518258
Co 4.712364 -1.520119 6.526325
O 0.910036 3.631094 5.560904
O 0.225374 2.456494 3.110317
O 1.885145 2.335091 1.006831
O 0.001509 4.910949 2.861467
O 5.669841 2.067076 7.420620
O 0.935852 1.155151 5.499742
O 2.703731 3.361967 3.121021
O 2.724341 1.188957 3.114809
O 1.865142 -0.145185 0.943354
O 3.806207 2.180929 5.542595
O 2.967619 0.885823 7.683025
O 2.947009 -1.284387 7.676835
O 3.786204 -0.252454 5.567972
O 4.761314 0.910857 0.958607
O 5.445976 -0.356915 7.669706
O 4.735498 -1.561577 0.897471
