28

Li 1.944818 2.354552 8.318198
Li 5.653783 2.096608 9.270997
Li 5.664595 2.089804 4.647274
Li 3.853355 -0.274923 3.736785
Mn 1.952813 2.358583 4.526359
Mn 3.853505 -0.269114 9.141816
Cr 0.973682 3.646422 1.972665
Cr 0.976171 1.205166 1.961833
Cr 1.946306 -0.139377 6.588626
Co 3.787026 2.225310 2.001004
Co 4.760110 0.884792 6.652373
Co 4.760179 -1.562588 6.648668
O 0.970664 3.695364 5.600468
O 0.241751 2.471511 3.213766
O 1.956227 2.353704 0.960309
O 5.706329 2.094533 2.899039
O 5.706835 2.090140 7.528804
O 0.971676 1.154868 5.599081
O 2.796549 3.383355 3.199741
O 2.791003 1.209653 3.195515
O 1.904767 -0.124696 0.925029
O 3.833278 2.222112 5.619110
O 3.003273 0.874679 7.825891
O 3.002492 -1.303426 7.823838
O 3.879939 -0.276698 5.654378
O 4.769646 0.914876 0.949224
O 5.524551 -0.392881 7.800465
O 4.778819 -1.585165 0.960989
