63

Li 11.186466 2.749831 4.154455
V 0.572401 0.916610 3.997659
V 2.043942 2.749831 8.434967
V 1.296061 0.916610 0.774048
V 6.283150 0.916610 7.811095
V 5.515543 2.749831 0.116092
V 6.836394 0.916610 4.535514
V 7.948713 2.749831 2.481413
V 9.460474 0.916610 6.862328
V 8.924370 2.749831 -0.769990
V 12.994280 0.916610 8.453509
V 12.453113 2.749831 0.829279
V 13.942056 0.916610 5.182926
V 15.078201 2.749831 3.126315
V 16.412575 0.916610 7.554856
V 15.634053 2.749831 -0.149104
V 20.620922 2.749831 6.905144
V 19.878412 0.916610 -0.758069
V 21.347038 2.749831 3.678149
O 0.069745 2.749831 4.236052
O 0.150711 0.916610 2.169900
O 1.773051 0.916610 8.905484
O 2.248748 2.749831 6.897236
O 0.973641 2.749831 0.338709
O 2.204166 0.916610 4.213504
O 3.782646 2.749831 9.305244
O 2.787657 0.916610 1.591293
O 4.759487 0.916610 7.059976
O 5.202722 0.916610 4.362876
O 6.643292 2.749831 8.249529
O 5.356722 2.749831 1.673855
O 7.313800 0.916610 6.361775
O 5.822402 0.916610 -0.324215
O 7.299772 2.749831 4.283911
O 8.560413 0.916610 8.857147
O 7.459887 0.916610 2.755960
O 7.721221 2.749831 0.721259
O 9.350662 2.749831 7.405793
O 9.645531 0.916610 5.283768
O 9.606560 2.749831 2.836716
O 11.410341 0.916610 7.578551
O 10.506796 2.749831 0.096651
O 12.265753 0.916610 4.793924
O 12.289425 2.749831 2.417433
O 12.567220 0.916610 0.270621
O 14.161022 0.916610 6.930876
O 14.417863 2.749831 4.915123
O 13.356965 2.749831 -1.177266
O 14.623568 0.916610 3.401861
O 16.090264 2.749831 7.996831
O 14.607392 2.749831 1.312864
O 16.555922 0.916610 5.996240
O 15.270974 0.916610 -0.581509
O 16.713319 2.749831 3.308518
O 17.158702 2.749831 0.611550
O 19.129020 2.749831 6.080475
O 18.133197 0.916610 -1.637393
O 19.710648 2.749831 3.459433
O 20.947749 0.916610 7.332826
O 19.669507 0.916610 0.776535
O 20.140119 2.749831 -1.236506
O 21.771467 2.749831 5.503122
O 21.849782 0.916610 3.435832
