12

Li 2.559053 3.011583 3.491521
Li 7.474744 6.073831 6.562819
Li 12.997636 9.430029 9.900918
Mn -0.001781 2.854847 3.812384
Mn 5.119888 3.168318 3.170657
Cr 10.236198 6.320473 6.320473
O 3.923174 3.135209 3.374193
O 9.095788 6.325714 6.563561
O 1.194932 2.887957 3.608849
O 14.137354 9.462871 9.708824
O 6.335026 6.040989 6.754913
O 11.376591 9.178147 9.900176
