14

Li 0.005670 0.007745 4.800236
Li 1.495914 2.043457 2.395757
Ti 3.753960 5.128005 3.561828
Mn 3.753960 2.527185 5.099580
Mn 0.750792 3.626421 4.464936
Mn 3.753960 5.128005 5.966520
O 5.004666 4.531550 5.037796
O 2.343138 3.200786 3.707033
O 2.343138 5.505737 4.475349
O 2.310397 3.156061 5.890993
O 5.197523 7.099949 6.042048
O 5.164783 4.750274 7.457691
O 2.503255 5.724460 6.895244
O 5.164783 7.055224 8.226008
