31

K 1.196904 8.255401 1.770490
K 1.053731 2.181285 7.145937
K 1.607396 3.954342 3.821677
K 3.970382 1.974273 2.234704
K 1.688942 6.345038 9.784819
K 4.041716 4.177406 8.103184
K 4.626522 6.264077 4.868977
K 4.351635 0.119361 9.610904
Li 1.626742 4.380582 0.932258
Li 1.210247 0.228571 4.980872
Li 4.025463 3.935747 10.960407
Cr 1.147037 2.326866 10.482156
Cr 1.710925 6.448551 6.377491
Cr 4.029945 1.809899 5.577124
Cr 4.483110 5.999883 1.375703
O 0.353953 5.771376 1.257781
O 0.962699 2.533122 1.107618
O 0.773852 7.743529 6.737158
O 1.001186 4.980178 6.643685
O 1.923045 6.609714 4.741374
O 2.494178 1.552068 4.618877
O 1.762069 0.757164 10.303790
O 3.460014 4.646361 1.712195
O 2.193835 3.665896 10.140901
O 3.872010 7.556840 1.595671
O 3.171387 6.534959 7.294768
O 3.788512 1.700431 7.251990
O 4.525642 3.443930 5.316563
O 5.186025 0.641084 5.110626
O 4.658955 5.817644 10.737816
O 5.305688 2.567039 10.563199
