15

Li 0.080656 0.049771 0.106301
Li 5.282101 3.234114 3.434904
Li 0.047321 2.868311 5.106761
Li 5.315436 6.279991 3.516912
Mn 2.681379 1.641943 4.422327
Mn 2.649695 3.051407 1.702224
Mn 2.713062 6.096896 1.618000
O 1.434929 1.555402 0.770944
O 3.927828 1.728483 2.770261
F 4.155139 3.157487 5.345944
F 1.112445 2.950836 3.356082
F 1.273413 4.512009 0.942589
F 4.089344 4.636294 2.377635
F 1.207618 5.990815 3.277729
F 4.250312 6.197466 5.267592
