30

V 0.103865 0.310093 14.606076
V 1.101706 2.417943 4.307153
V 1.701502 -0.043390 8.974011
V 2.625174 2.967588 -1.208504
V 3.944520 5.070997 3.023270
V 4.353418 2.472559 7.651957
O 1.122275 1.555634 13.848873
O 2.015446 1.164364 3.579147
O 3.012510 1.485526 8.028936
O 1.659243 4.231194 -0.469840
O 5.271405 4.128004 2.651692
F 0.138291 1.120145 9.441702
F 0.686973 3.853695 9.809397
F 0.290977 0.288510 1.535669
F 1.081026 2.316730 6.054644
F 2.229272 0.349187 10.421681
F 0.636481 3.189030 2.946689
F 1.676764 4.985937 7.283401
F 2.510244 2.941760 11.834020
F 4.037892 0.975755 12.367285
F 2.588589 3.739606 4.007095
F 3.447356 4.031382 8.441309
F 2.973843 2.069256 0.153276
F 3.895271 0.392836 4.631947
F 5.012611 2.141925 9.027661
F 3.326081 4.895493 1.592547
F 4.486485 2.962869 5.943469
F 5.368169 4.668778 10.459268
F 4.888294 1.329970 2.117881
F 4.312675 3.708361 -1.767929
