11

Li 2.758489 6.646628 3.979729
Li 1.392585 6.011504 0.274281
Li 2.758463 2.300175 -0.545928
Cu 0.342401 5.122237 3.065634
Cu 1.560565 3.710609 4.313527
Cu 0.342446 3.202737 1.067084
Cu 1.560427 1.868225 2.395223
O 0.966862 5.242113 4.584898
O 3.516210 6.652890 -0.385127
O 2.105325 2.176677 3.929283
O 0.967063 1.673950 0.869755
