15

Li 0.750947 1.014107 1.182481
Li 0.750947 1.014107 3.598999
Li 0.750947 3.560744 1.986097
Li 3.754737 5.070533 5.912405
Ti 3.754737 2.523896 5.108789
Ti 3.754737 5.070533 3.495887
Ti 0.750947 3.560744 4.402615
O 2.309115 3.107739 3.622683
O 5.074104 4.459831 4.964812
O 2.214790 5.398804 4.300524
O 5.294684 7.094097 6.034761
O 5.294684 4.742262 7.524286
O 2.214790 3.046969 5.790049
O 2.435371 5.681236 6.859998
O 5.200359 7.033327 8.202127
