20

Li 1.700886 1.486610 1.320868
Li 5.282399 4.616928 3.958042
Mn 6.340789 5.541983 1.203081
V 1.402807 4.012530 4.739486
V 2.713846 5.196377 1.985872
V 4.209157 0.892445 3.302329
V 5.558439 2.033774 0.532223
Cu 0.698081 0.610137 4.074418
O 0.129748 5.372079 4.608715
O 0.698768 2.450518 4.880175
O 1.436951 6.583534 1.897219
O 2.479601 4.093541 3.394834
O 2.551689 0.390449 3.221589
O 2.444084 4.119336 0.665472
O 4.419678 1.936574 4.614301
O 4.399720 5.665075 2.098636
O 4.441404 1.898726 1.887828
O 5.425986 -0.516251 3.434527
O 6.232345 3.627573 0.359554
O 6.802613 0.618018 0.621706
