17

Li 5.031928 2.587018 1.745949
Nb 2.720017 2.560164 3.589365
Te 0.039680 5.157438 3.708468
Te 2.730941 2.609066 7.271106
W 0.035939 0.025514 7.413683
O 4.393370 3.607912 0.099906
O 4.438973 1.564935 3.710541
O 3.867548 4.132772 3.010791
O 3.831652 1.055796 6.774322
O 2.802301 2.064039 1.598725
O 2.741654 3.165469 5.446351
O 1.620008 4.138244 0.261164
O 1.676142 0.949490 3.983644
O 1.033854 3.584858 3.173088
O 1.122667 1.562285 6.996052
O 0.061620 0.616735 1.829095
O 0.018816 4.652174 5.597437
