24

Mn 2.134903 2.048917 4.506890
Mn 2.738026 7.649177 1.502297
Mn 4.580694 2.656717 1.502297
Cu 0.457349 6.966013 4.506890
P 0.391844 5.892785 1.502297
P 2.022521 0.912242 1.502297
P 2.841750 8.757136 4.506890
P 4.528202 3.813434 4.506890
O 0.712655 4.385807 1.502297
O 1.140392 6.586435 0.313553
O 1.140392 6.586435 2.691040
O 1.143311 3.702234 4.506890
O 1.295751 8.632673 4.506890
O 1.334014 1.641745 0.299804
O 1.334014 1.641745 2.704789
O 1.675724 9.249719 1.502297
O 3.166342 0.433412 4.506890
O 3.510353 8.061501 3.286112
O 3.510353 8.061501 5.727668
O 3.554552 1.049110 1.502297
O 3.786221 6.005276 1.502297
O 3.800396 3.126190 3.309722
O 3.800396 3.126190 5.704058
O 4.258829 5.333559 4.506890
