22

Li 2.403328 1.880365 7.417036
Li 2.457741 2.787478 2.466324
Li 2.435835 4.017566 7.412238
Li 2.366606 4.913156 2.498652
Co 0.012240 4.257473 9.895941
Co 0.014883 2.132411 4.940332
Ni 1.582161 2.257811 9.882693
Ni 1.585192 4.394128 4.958081
Ni 3.244156 2.401416 4.944475
Ni 3.242390 4.526869 9.900195
O 4.838154 3.256298 5.907779
O 4.836471 3.929995 0.982174
O 4.834730 5.387790 8.947072
O 1.663018 5.008296 8.843570
O 4.836161 6.076206 4.011496
O 1.664905 1.662746 3.878970
O 1.664357 2.878246 6.006772
O 1.661743 3.781744 1.082093
O 3.208026 5.927607 1.026174
O 3.208933 3.121484 8.898337
O 3.212133 3.808251 3.964072
O 3.212167 5.251905 5.955763
