20

Li 1.597664 6.469414 6.191020
Li 4.402029 14.245366 14.669636
Li 4.432716 9.663246 11.533016
Nb 0.035312 0.110987 4.351941
Nb 5.589987 10.946098 13.770742
Nb 2.770273 12.369173 11.597919
Nb 2.894461 7.957666 8.547151
V 1.687930 11.154907 9.500112
O 2.094017 5.211742 4.762857
O 1.255871 2.609420 4.870671
O 0.605581 3.648949 5.827361
O 4.929814 7.320949 7.736294
O 2.023138 9.729922 7.850280
O 4.094261 8.112489 8.564027
O 1.273666 7.323771 8.029431
O 3.366050 5.466316 8.699801
O 0.620089 8.310968 9.000538
O 4.877526 11.980008 10.849688
O 4.056210 12.615059 11.646299
O 3.468175 10.204432 11.929395
