72

Li 10.036279 3.120672 -3.128875
Li 0.345452 4.156914 2.636361
Ni 7.879724 -0.489710 -1.487058
Ni 9.590664 0.555688 2.980778
Ni 2.502008 7.767295 0.994544
Ni 3.872022 1.175659 5.181889
Ni 4.547863 4.695963 -1.225286
Ni 6.509709 6.101926 -5.674403
Ni 0.791067 6.721897 -3.473292
Ni 5.833869 2.581622 0.732772
P 0.638362 3.045159 0.325019
P 4.047505 8.326282 -5.628433
P 5.342325 1.505503 -1.369332
P 2.461353 7.394692 -1.538737
P 2.751792 0.611054 2.872881
P 7.920379 -0.117107 1.046223
P 6.334227 -1.048696 5.135919
P 5.039407 5.772082 0.876819
P 7.304358 2.980442 3.015648
P 0.119743 9.890006 1.300817
P 3.077384 4.297141 -3.508166
P 10.261989 -2.612420 -1.793330
P 7.629939 6.666532 -3.365395
P 9.743369 4.232427 -0.817533
O 9.506988 6.915657 -3.393493
O 6.118297 7.190130 -0.151241
O 2.359768 3.824623 -0.156462
O 3.104563 7.663420 -4.368641
O 1.650872 7.409576 -0.327202
O 3.640790 1.543534 1.660852
O 2.825305 2.858222 5.152493
O 9.756897 5.933510 -1.306486
O 3.162722 7.909220 2.444347
O 7.093090 1.357109 -1.697437
O 9.210973 0.619249 1.454109
O 4.704710 1.654334 -2.415402
O 8.730860 -0.131990 -0.165312
O 5.776914 8.075662 -5.905532
O 8.953537 2.589292 2.679353
O 7.277168 -0.385834 3.876127
O 5.187647 4.590749 0.339797
O 5.677021 5.623251 1.922888
O 1.790921 -0.256183 6.356541
O 7.498694 6.166148 -4.357644
O 7.210590 -1.723059 1.956223
O 0.874744 0.361929 2.900979
O 8.021964 3.452962 -0.336052
O 0.029453 8.628101 -3.717956
O 3.171141 9.000645 -2.448737
O 7.219010 -0.631634 -2.936861
O 8.590810 7.533768 -6.849055
O 3.901590 4.326559 -2.569853
O 6.485655 0.589502 1.114066
O 2.883038 1.111438 3.865130
O 6.480142 2.951026 2.077340
O 3.288642 5.920476 1.204923
O 4.152070 5.278792 -4.717772
O 10.143606 0.833863 -2.494507
O 0.238126 6.443723 2.001993
O 10.152015 0.627004 -4.444503
O 5.194084 2.686837 -0.832310
O 4.604817 -0.798077 5.413018
O 0.624835 1.344075 0.813972
O 10.352279 -1.350516 3.225433
O 6.229662 1.998793 4.225258
O 7.556426 4.419364 -5.645007
O 1.428194 4.688293 -3.171866
O 0.229717 6.650582 3.951989
O 6.740941 5.734051 -2.153366
O 4.263435 0.087455 -0.341273
O 3.896077 6.688083 -1.606589
O 1.170758 6.658336 -1.946622
