16

Li 5.967284 -0.391719 7.697733
Li 5.968317 -2.990530 8.398523
Li 2.972012 1.106935 4.709105
Li 2.978954 3.701200 8.891108
Cr 5.968412 -2.990417 5.959832
Fe 5.968424 -0.392758 10.136756
Fe 2.983902 -1.493643 2.981063
Fe 2.984003 1.103457 7.157449
O 5.968007 -0.313209 9.006319
O 2.971976 -1.414552 6.713640
O 5.967619 -2.914893 9.705364
O 2.995296 1.181669 6.034399
O 2.995881 3.620558 7.600377
O 0.000245 2.520203 5.308647
O 2.972107 1.024279 8.278990
O 5.968084 2.131177 10.568170
