44

Li 0.837927 8.368892 6.602767
Li 2.813839 3.971983 4.288816
Li 4.489692 4.821835 0.491384
Li 6.465604 0.424926 -1.822567
Sn 0.972166 5.079010 7.003983
Sn 2.679600 0.682101 3.887600
Sn 4.623931 8.111717 0.892600
Sn 6.331365 3.714808 -2.223784
P 0.478695 6.380434 4.260428
P 3.173070 1.983525 6.631155
P 1.322772 6.508340 1.433397
P 2.328994 2.111431 0.956703
P 4.974537 6.682387 3.823497
P 5.980759 2.285478 3.346803
P 4.130461 6.810293 -1.850955
P 6.824836 2.413384 0.519772
O 1.034574 5.211771 4.982438
O 1.055448 7.742922 4.595791
O 2.444273 6.816704 6.803097
O 1.207493 2.419795 4.088486
O 2.596318 3.346013 6.295792
O 1.103732 5.955103 2.850838
O 2.617191 0.814862 5.909145
O 0.653155 2.111739 1.392191
O 0.549189 7.801075 1.371702
O 0.705499 5.302013 0.710965
O 4.755497 7.235624 5.240938
O 2.946266 0.905104 1.679134
O 4.304920 2.285170 3.782290
O 4.200955 5.389652 3.761802
O 3.102577 3.404166 1.018398
O 2.998611 6.508648 0.997909
O 4.357265 7.888714 3.101065
O 2.548034 1.558194 -0.460738
O 6.598032 3.491805 4.069234
O 6.754342 0.992743 3.408498
O 6.650376 6.682079 3.388009
O 4.686340 7.978957 -1.128945
O 6.199800 2.838715 1.929362
O 4.707214 5.447806 -1.515592
O 6.096038 6.374023 0.691714
O 4.859258 1.977114 -2.022897
O 6.248083 1.050896 0.184409
O 6.268957 3.582047 -0.202239
