22

Li 1.663627 4.704494 10.564658
Li 4.451417 3.592142 4.639418
Li 4.825605 6.547178 7.784569
Mn 1.329710 1.804095 7.423665
Mn 3.973499 5.391077 2.839006
V 0.436947 0.592831 2.473906
V 2.212769 3.002192 2.657235
V 3.040884 4.125744 7.600321
V 2.611130 1.255644 4.497276
V 0.005969 2.295126 10.345686
O 0.826561 1.961209 3.954210
O 1.783141 1.579525 1.172800
O 0.427123 3.701408 2.207475
O 1.396655 3.169817 8.837623
O 2.848891 2.590362 6.173453
O 1.257519 5.013699 7.308012
O 2.316479 4.512115 4.177332
O 3.983297 2.282464 3.105435
O 3.262146 5.284642 9.095315
O 3.876156 3.889791 1.319566
O 5.025162 3.510378 7.913370
O 4.240294 4.894353 6.251991
