12

V 0.710053 0.917788 1.417141
V 4.935053 1.446279 6.682385
Co 2.822553 -1.315315 2.417312
Co 0.000000 2.497349 3.932027
O 4.316090 -1.907632 1.426039
O 4.229014 0.401193 2.996072
O 1.416092 4.209369 4.503343
O 1.259192 1.806888 2.795440
O 4.385914 0.557179 5.304087
O 4.229014 -1.845302 3.596184
O 1.416092 1.962874 5.103455
O 1.329016 4.271699 6.673488
