29

Li 0.026498 5.132674 3.587005
Li 4.757932 5.016882 1.238075
Li 4.351209 7.330515 3.026315
Li 4.429339 2.438188 5.332112
Li 3.802129 1.678961 3.142747
Li 3.618991 4.665901 4.952301
Li 3.408860 6.986002 0.744393
Li 2.714657 1.337453 1.046753
Li 2.034501 0.854221 4.492899
Li 1.823895 3.451999 0.238856
Li 1.686641 6.331623 2.360918
Li 1.189645 5.685763 -0.091329
Li 0.818735 0.582044 2.447659
Li 0.783010 2.895727 4.010444
Li 0.026083 2.777861 1.696497
Cr 2.741781 4.001605 2.628902
Cr 5.443922 7.977348 -0.444811
O 4.776631 6.169396 -0.344264
O 4.521586 0.538499 1.743084
O 4.421977 3.413191 3.635880
O 3.896285 0.640701 4.925284
O 3.601099 3.439332 0.941348
O 3.503960 5.750610 2.452783
O 1.969465 2.120090 2.761840
O 1.843952 4.467602 4.304328
O 1.521636 7.493689 0.529890
O 1.086502 4.598565 1.645771
O 0.737933 7.454803 3.622661
O 0.795460 1.825061 -0.096413
