26

Na 2.178522 3.426049 1.296289
Na 6.490038 3.506889 3.896010
Li 0.748998 1.529274 3.761483
Li 2.352413 0.229386 1.200891
Li 6.316147 6.703552 3.991408
Li 7.919562 5.403664 1.430816
Mn 3.068991 5.161745 3.957244
Mn 5.599569 1.771193 1.235055
P 3.517329 1.704270 3.622743
P 5.151231 5.228668 1.569556
C 0.359425 5.150444 3.653568
C 8.309136 1.782494 1.538731
O 0.884991 1.521807 1.694011
O 0.705950 5.090814 4.902508
O 1.275709 5.140148 2.716107
O 2.611672 0.555381 4.172231
O 2.755779 3.016286 3.985190
O 3.652281 1.578553 2.069195
O 3.712493 5.269181 0.998030
O 4.956067 1.663757 4.194270
O 5.016279 5.354385 3.123105
O 5.912782 3.916652 1.207109
O 6.056888 6.377557 1.020069
O 7.392851 1.792790 2.476192
O 7.962610 1.842124 0.289791
O 7.783570 5.411131 3.498288
