20

Li 5.279079 3.127608 6.725272
Li 5.346249 3.220296 2.066125
Mn 1.384604 2.441711 4.497441
Mn 1.801547 2.197753 0.843442
Mn 3.691217 5.624599 9.616485
Mn 4.244115 5.568246 5.988825
F 1.142636 2.878410 6.441109
F 1.046800 1.770662 2.635816
F 5.655662 6.499646 0.486761
F 2.626436 2.437600 8.344340
F 1.820965 4.833493 9.316110
F 1.136361 3.888810 4.511314
F 1.593150 0.893797 4.371852
F 4.025478 2.266213 3.459256
F 4.299905 4.134742 6.150087
F 3.533795 3.077589 1.329500
F 3.021000 5.470359 2.132861
F 5.571828 4.400017 8.431006
F 4.271588 6.220537 7.932746
F 4.482723 4.999086 4.031815
