28

Li 0.000273 10.557802 4.949417
Li 6.069756 5.281488 2.474832
Li 3.034878 10.557683 4.949475
Li 3.035770 5.281881 2.474804
V 1.517527 0.995366 2.134074
V 1.517606 6.275941 0.341096
V 4.552854 4.284063 4.609140
V 4.552860 9.563476 2.815593
Co 1.517776 2.848503 4.893860
Co 1.517837 8.127325 2.528980
Co 4.552763 2.431084 2.418865
Co 4.552933 7.711901 0.054704
O 0.137554 1.799828 1.375333
O 0.137208 7.079136 1.099845
O 1.517491 4.677553 1.013413
O 1.517788 0.995007 3.870793
O 1.517733 6.275529 3.553186
O 1.517412 9.956819 1.461230
O 2.897658 1.798626 1.375205
O 2.897712 7.078187 1.100232
O 3.171953 8.760195 3.574689
O 3.172772 3.481204 3.850232
O 4.552872 5.883538 3.935734
O 4.552866 0.601210 3.488234
O 4.552648 4.284992 1.396100
O 4.552812 9.563761 1.078814
O 5.932408 3.480445 3.850025
O 5.933191 8.760122 3.575106
