18

Li 0.156496 6.585531 6.411348
Li 0.000135 3.203593 6.521226
Li 4.502292 3.065519 3.289988
Li 4.658495 0.015989 3.410533
V 2.804176 4.948831 5.010955
V 2.329639 4.946514 1.647336
V 1.855171 1.661582 1.655836
Co 2.329229 1.614934 4.970922
O 1.308820 6.354974 1.638382
O 1.123389 5.014616 5.129089
O 3.349688 4.940773 3.055919
O 3.414184 4.936078 0.287339
O 1.244688 3.586368 1.639418
O 3.418120 3.140346 4.974069
O 1.240500 1.620815 6.496421
O 1.213405 1.627309 3.453253
O 3.534658 1.779067 1.721517
O 3.445187 0.097302 4.986867
