64

K 1.287188 2.018871 8.557158
K 5.120049 5.272869 3.208667
K 7.694426 1.235126 8.557158
K 11.527287 4.489124 3.208667
Li 1.362755 6.235778 0.314523
Li 5.044483 2.981781 5.663015
Li 7.769993 3.526214 0.314523
Li 11.451720 0.272216 5.663015
Ti 1.735464 0.028349 5.392007
Ti 3.248700 5.016727 8.097851
Ti 3.158538 1.762729 2.749360
Ti 4.671773 3.282346 0.043515
Ti 8.142702 3.225649 5.392007
Ti 9.655938 4.745265 8.097851
Ti 9.565776 1.491268 2.749360
Ti 11.079011 6.479646 0.043515
P 0.008163 5.491752 8.165146
P 2.357313 3.302482 5.471549
P 4.049925 0.048485 0.123058
P 6.399075 2.237755 2.816655
P 6.415401 4.270240 8.165146
P 8.764550 6.459510 5.471549
P 10.457163 3.205513 0.123058
P 12.806313 1.016243 2.816655
O 0.065174 6.422851 6.934832
O 0.064124 0.177916 4.138844
O 1.217196 1.965395 2.689296
O 1.278898 4.610680 8.284043
O 1.480469 4.530339 5.170269
O 1.506226 2.053175 5.769781
O 2.901953 0.300695 4.106860
O 2.860153 6.293869 6.858841
O 3.078473 0.318443 1.329303
O 3.044245 6.296426 9.644367
O 3.362993 3.042429 4.295876
O 3.328765 3.572440 6.677794
O 3.547085 3.039871 1.510350
O 3.505285 3.554693 9.455352
O 4.901012 5.307172 0.421290
O 4.926769 1.276341 10.518760
O 5.128340 1.356683 2.935551
O 5.190042 5.219392 8.037787
O 6.343114 3.431913 9.487336
O 6.342064 3.168853 1.586341
O 6.472412 3.339142 6.934832
O 6.471362 3.076082 4.138844
O 7.624434 1.288603 2.689296
O 7.686135 5.151312 8.284043
O 7.887707 5.231653 5.170269
O 7.913464 1.200823 5.769781
O 9.309191 2.953302 4.106860
O 9.267391 3.468123 6.858841
O 9.485711 2.935555 1.329303
O 9.451483 3.465566 9.644367
O 9.770231 0.211568 4.295876
O 9.736003 6.189552 6.677794
O 9.954323 0.214126 1.510350
O 9.912522 6.207299 9.455352
O 11.308250 4.454820 0.421290
O 11.334007 1.977656 10.518760
O 11.535578 1.897315 2.935551
O 11.597280 4.542600 8.037787
O 12.750352 6.330079 9.487336
O 12.749301 0.085144 1.586341
