44

Li 4.947714 8.700432 2.932403
Li 4.654688 8.620607 8.447042
Li 3.071650 5.398414 0.414987
Li 3.094413 5.253122 5.975621
Mn 4.754881 2.724641 3.736870
Mn 5.069314 5.516846 8.710156
Mn 2.870176 8.519066 0.918667
Mn 3.078232 2.166836 6.287024
Mn 2.278316 6.750432 3.531118
Mn 1.999843 1.089586 8.980991
Mn 0.562775 3.614760 1.145001
Mn 0.379174 6.981453 6.115525
B 4.861184 5.493097 3.658924
B 4.615885 2.466808 8.780413
B 3.191741 2.481264 1.229569
B 2.942321 8.463902 6.240806
B 2.208281 0.775892 3.769207
B 2.211680 7.000060 8.877024
B 0.451738 6.753845 0.974910
B 0.453120 3.867601 6.314019
O 4.895940 8.031667 1.109100
O 4.809965 3.120722 5.672302
O 5.152644 5.774913 0.349498
O 5.023562 5.224258 6.758338
O 4.432095 2.393233 1.853843
O 4.258102 8.551491 6.534936
O 3.550482 5.268771 3.967888
O 3.369761 2.514087 8.163587
O 2.879900 8.774348 2.876222
O 2.760070 8.256091 9.299610
O 3.096576 1.695122 4.375610
O 2.983041 5.913515 8.820179
O 2.596033 3.663867 1.023078
O 2.370308 7.304177 5.711984
O 2.591566 1.313916 0.747954
O 2.134256 0.493841 6.773496
O 1.845561 6.772586 1.245659
O 1.781046 3.798455 6.233549
O 0.880010 0.869809 3.798514
O 0.845019 6.992239 8.544827
O 0.396601 4.187196 3.319910
O 5.205157 3.649684 9.232187
O 0.240199 6.509387 3.970914
O 5.228979 1.305264 9.023186
