28

Li 0.000393 10.172600 0.000018
Li 0.000393 10.172600 2.987889
Li 2.365323 5.109533 2.992682
Li 2.365323 5.109533 5.971040
Fe 4.621908 2.837762 1.493954
Ni 0.090748 7.381904 4.481861
Ni 2.268845 2.267977 4.481861
Ni 2.463590 7.909021 1.493954
P 0.405015 6.075299 1.493954
P 1.965925 0.935283 1.493954
P 2.762592 9.223481 4.481861
P 4.330481 4.147622 4.481861
O 0.967998 4.630905 1.493954
O 1.067675 6.793048 0.259285
O 1.067675 6.793048 2.728623
O 1.134437 4.068500 4.481861
O 1.229391 9.169289 4.481861
O 1.315686 1.655746 0.252460
O 1.315686 1.655746 2.735447
O 1.401101 9.674003 1.493954
O 3.320015 0.494702 4.481861
O 3.430812 8.503364 3.251763
O 3.430812 8.503364 5.711958
O 3.495652 0.986314 1.493954
O 3.601783 6.123096 1.493954
O 3.655154 3.420296 3.262968
O 3.655154 3.420296 5.700754
O 3.784694 5.596914 4.481861
