36

Mn 8.582860 4.264065 4.266227
Mn 0.600990 5.082313 6.409061
Mn 4.315770 5.855063 6.885246
Mn 3.714582 8.208656 9.974200
Mn 8.021493 6.625932 7.360273
Fe 4.876940 3.493158 3.791178
P 2.133730 2.921163 5.486388
P 2.133730 8.186823 5.202591
P 2.133730 5.095493 9.127657
P 6.483191 6.641187 4.624797
P 6.483191 3.492578 8.554983
P 6.483191 8.784048 8.309485
O 0.561893 1.168437 2.692089
O 0.561893 4.094444 2.395838
O 0.561893 2.523720 4.626193
O 2.027113 1.638446 6.394615
O 3.704913 3.310512 5.020053
O 2.219933 4.227323 6.068438
O 2.027113 7.998298 3.945538
O 2.219933 6.768721 5.946079
O 4.897302 7.043152 4.042007
O 2.219933 5.261224 7.835260
O 6.610239 5.253549 4.320384
O 4.897302 2.499544 8.064689
O 3.704913 9.182105 5.686919
O 2.027113 6.500200 9.435483
O 6.365011 6.476069 5.901812
O 3.704913 4.691367 9.713862
O 6.365011 4.889469 7.809382
O 6.610239 3.681635 9.804834
O 6.365011 7.478523 7.732623
O 4.897302 8.385421 8.772696
O 6.610239 10.061914 7.412905
O 8.053703 9.153930 9.198679
O 8.053703 7.682625 11.357455
O 8.053703 10.497293 11.035118
