14

Li 1.757154 2.311183 4.710687
Li 3.454093 4.543165 1.570229
V 1.840196 2.420407 1.570229
V 3.371052 4.433941 4.710687
Co 0.000000 0.000000 0.000000
Co 0.000000 0.000000 3.140458
O 1.242096 1.633727 0.178146
O 1.242096 1.633727 2.962312
O 1.224023 3.956279 1.570229
O 1.429789 4.226923 4.710687
O 3.781458 2.627425 1.570229
O 3.987224 2.898069 4.710687
O 3.969152 5.220621 3.318604
O 3.969152 5.220621 6.102770
