28

Li 2.004097 2.423109 8.654738
Li 5.876882 2.170578 9.746954
Li 5.899159 2.169821 4.963296
Li 3.980079 -0.258262 3.919074
Mn 1.955459 2.425016 4.732526
Mn 3.862303 2.301873 2.234100
Mn 3.901969 -0.252260 9.513387
Mn 4.918957 0.934941 6.997403
Mn 4.919004 -1.571892 6.945392
Fe 0.966254 3.734275 2.134731
Fe 0.966030 1.244664 2.082563
Fe 2.002591 -0.129496 6.845036
O 0.967494 3.776896 5.814065
O 0.219792 2.537877 3.330981
O 2.044683 2.419283 1.121859
O 5.792563 2.177544 3.189343
O 5.840292 2.173332 7.956112
O 0.967063 1.200552 5.760024
O 2.871387 3.467728 3.447693
O 2.872632 1.264400 3.402204
O 1.954975 -0.126549 0.975375
O 3.974778 2.294678 5.953920
O 3.126288 0.925244 8.147959
O 3.126654 -1.329064 8.101785
O 4.023605 -0.260140 5.931908
O 4.865898 0.969682 1.167204
O 5.676617 -0.367491 8.216322
O 4.865148 -1.599333 1.113758
