90

Ca 0.900456 6.994572 3.996157
Ca 4.971454 12.322269 15.419955
Ca 5.631669 12.338125 11.312142
Ca 7.675229 14.929642 17.826182
Ca 2.177556 7.025242 8.933751
Ca 0.720181 4.900221 6.508530
Ca 12.586717 18.062773 15.958170
Ca 6.305641 9.111153 6.903030
Ca 7.855504 11.245877 9.364199
Ca 1.099190 1.416146 6.817334
Ca 13.541144 18.952393 18.436324
Ca 6.013014 8.237426 13.489521
Ca 13.260689 14.868864 20.314040
Ca 11.926502 12.754332 13.878438
Ca 8.054237 7.304493 11.383141
Ca 6.586096 5.236010 8.925475
Ca 9.132604 7.330390 7.454429
Ca 12.968062 12.779346 18.715147
Mn 0.021658 0.030625 0.035541
Mn 6.976706 9.865129 11.448711
P 3.814607 10.698078 8.809153
P 2.572575 8.488765 6.592347
P 2.597585 8.489366 10.993651
P 4.491514 10.714334 13.489675
P 9.527623 13.848331 11.417284
P 10.769655 15.592618 13.861976
P 3.724331 5.266240 6.111593
P 10.679378 15.100744 17.524763
P 4.338670 5.770699 11.454455
P 3.113844 4.026825 9.017133
P 9.552633 9.032576 9.397667
P 11.293718 11.241914 16.224678
P 11.446562 11.245585 11.899551
P 10.068892 9.044974 14.009381
O 1.626702 9.538231 5.838626
O 1.813181 9.562557 10.647213
O 1.567292 9.205190 7.938405
O 1.986682 9.872941 12.710279
O 3.610296 11.357307 9.401144
O 1.583066 7.643392 9.908656
O 1.234187 7.166750 6.992313
O 4.912754 11.961297 8.273869
O 5.173012 11.967547 12.775934
O 2.080032 7.187064 11.745194
O 2.404916 7.663129 5.870075
O 5.651421 11.406326 14.665983
O 8.522340 14.740453 12.677242
O 8.189235 14.551429 10.824839
O 5.195351 9.949998 9.694010
O 1.545912 4.932600 4.978567
O 4.668437 9.279666 13.657267
O 4.928249 9.637367 7.590853
O 5.086171 9.621302 11.710959
O 1.926159 4.799282 10.469273
O 2.373716 5.131851 8.674579
O 8.500960 13.443821 17.040215
O 10.548999 16.239671 16.571414
O 10.565344 15.887974 14.632285
O 8.581736 12.290729 11.941146
O 12.150399 17.268223 13.559103
O 9.359964 13.390011 10.515008
O 4.299082 6.078943 7.054754
O 11.254130 15.913448 18.467925
O 2.627840 3.560860 7.978504
O 5.321168 7.436740 10.981007
O 1.851253 2.461627 9.405349
O 4.975015 6.086243 12.584830
O 5.497965 6.450892 5.973763
O 3.593951 3.658501 6.504252
O 11.883297 15.027704 12.400711
O 11.867801 14.705511 14.380464
O 9.035080 10.325865 8.877235
O 8.881207 9.980927 15.381400
O 8.941729 10.127412 11.255792
O 12.453013 14.862015 18.084463
O 8.806301 9.866715 13.227866
O 5.510137 4.819614 10.024310
O 5.437498 4.998893 11.702926
O 8.538114 7.965352 8.421095
O 11.930063 12.505587 16.890421
O 8.768229 7.954192 10.105611
O 11.623484 12.136477 10.927498
O 12.392546 12.154946 15.647491
O 9.328764 7.967654 14.736290
O 12.606469 12.521831 12.789544
O 9.582887 7.990443 13.259181
O 12.041219 9.944403 10.222848
O 12.276216 10.207491 17.074597
O 12.128059 10.058902 12.381486
O 12.465184 10.408241 14.736995
