24

Li 0.871535 3.384353 5.746674
Li 1.676407 4.496484 10.607785
Li 3.430711 2.526597 9.238497
Li 4.242955 3.636257 4.601327
Li 4.700630 6.458299 7.845646
Cr 1.313413 1.804527 7.376578
Cr 3.831950 5.264800 2.928888
Ni 0.417548 0.573678 2.456054
Ni 5.100892 4.868456 9.473372
Ni 2.596904 5.707715 5.982022
Ni 2.141168 2.941797 2.694745
Ni 2.987743 4.104926 7.608442
O 4.866691 3.576118 7.819743
O 1.226937 4.796050 7.413502
O 0.577925 1.989684 4.035592
O 1.977102 1.520724 1.114695
O 1.501783 3.059216 8.891904
O 2.667178 2.668612 6.074809
O 2.439228 4.381724 4.260258
O 3.645033 3.977576 1.378766
O 3.043345 5.456385 9.204184
O 4.535444 4.956280 6.234730
O 4.033007 2.197718 2.872570
O 0.120613 3.509031 2.499095
