40

Li 0.402763 2.619423 0.866288
Li 3.277402 5.866102 9.433415
Li 4.678843 6.438194 16.455026
Li 1.804204 3.191514 7.887899
V 2.227344 0.955302 4.375495
V 2.854262 8.102314 12.945819
P 1.508363 5.597046 5.937320
P 3.353936 4.114173 4.498165
P 1.727670 4.943444 12.823149
P 5.044282 1.988487 13.424053
P 3.573243 3.460570 11.383994
P 0.037324 7.069129 3.897261
P 4.389954 2.701127 6.857326
P 0.691652 6.356489 10.463988
O 2.537226 3.732497 12.375681
O 3.773647 3.174732 8.008950
O 3.583066 8.464382 5.451003
O 3.603403 1.406405 6.005262
O 1.478204 7.651211 11.316053
O 2.130697 6.911173 6.825378
O 4.908969 3.175821 12.405677
O 4.367468 3.876844 5.845133
O 0.867496 0.503532 2.672319
O 3.867275 4.639974 10.682865
O 0.714138 5.180772 11.476181
O 2.728975 6.201727 13.334493
O 0.936571 4.413517 13.782051
O 2.352631 2.855889 3.986821
O 1.307960 5.882885 9.312364
O 1.214331 4.417643 6.638449
O 1.498540 0.593234 11.870311
O 4.238070 7.751118 11.879332
O 2.544381 5.325120 4.945633
O 4.145036 4.644099 3.539249
O 4.627265 2.479865 14.684228
O 0.172637 5.881795 4.915637
O 0.843536 1.306498 5.441982
O 2.950909 2.146444 10.495936
O 4.214110 8.554084 14.648995
O 0.454341 6.577751 2.637086
