56

Li 0.312772 6.822153 4.691261
Li 2.220274 10.229458 2.797696
Li 2.818428 3.421302 2.797696
Li 4.725929 0.013998 4.691261
Li 5.351474 6.822153 0.364745
Li 7.258976 10.229458 2.258311
Li 7.857130 3.421302 2.258311
Li 9.764631 0.013998 0.364745
Co 0.364500 10.234932 0.305898
Co 2.185547 0.017293 2.808586
Co 2.853155 6.825448 2.808586
Co 4.674202 3.426776 0.305898
Co 5.403202 10.234932 4.750108
Co 7.224249 0.017293 2.247420
Co 7.891857 6.825448 2.247420
Co 9.712904 3.426776 4.750108
P 0.308510 5.123845 2.198968
P 2.170239 1.738204 0.267731
P 2.868462 8.546360 0.267731
P 4.730192 11.932001 2.198968
P 5.347211 5.123845 2.857038
P 7.208941 1.738204 4.788276
P 7.907164 8.546360 4.788276
P 9.768894 11.932001 2.857038
O 10.064998 11.930489 4.383932
O 9.757295 6.405943 2.819669
O 0.334217 10.654982 2.245969
O 0.643452 1.751480 5.041010
O 1.832465 5.137339 2.488035
O 2.270631 7.269408 4.662169
O 2.815354 3.022481 4.734282
O 2.470798 1.708452 1.793871
O 2.567904 8.516608 1.793871
O 2.223347 9.830636 4.734282
O 2.768071 0.461253 4.662169
O 3.206237 11.945495 2.488035
O 4.395250 8.559635 5.041010
O 4.704485 3.846826 2.245969
O 5.358811 13.214099 2.819669
O 5.051107 5.122334 4.383932
O 5.026297 11.930489 0.672075
O 4.718593 6.405943 2.236337
O 5.372919 10.654982 2.810037
O 5.682154 1.751480 0.014996
O 6.871167 5.137339 2.567971
O 7.309332 7.269408 0.393838
O 7.854056 3.022481 0.321724
O 7.509500 1.708452 3.262135
O 7.606606 8.516608 3.262135
O 7.262049 9.830636 0.321724
O 7.806773 0.461253 0.393838
O 8.244939 11.945495 2.567971
O 9.433951 8.559635 0.014996
O 9.743187 3.846826 2.810037
O 0.320109 13.214099 2.236337
O 0.012405 5.122334 0.672075
