64

Li 2.584938 3.227508 3.527456
Li 2.589021 6.323664 3.574079
Li 2.962840 0.057952 8.994074
Li 7.798836 3.122469 2.093485
Li 7.783665 6.332342 2.180021
Li 7.970321 3.019808 7.335601
Li 8.298110 4.775055 10.012682
Li 10.286632 1.542025 8.054350
V 0.043409 6.353970 0.019433
V 0.056582 3.184487 0.023248
V 10.706749 -0.022020 5.515183
V 0.024047 3.218263 5.451487
V 5.391260 0.000051 5.533060
V 5.339729 3.181344 5.521525
V 5.373628 6.326190 0.015496
V 5.297889 3.134496 10.965292
P 0.416626 4.813342 8.170578
P 2.585003 4.765042 0.868593
P 2.795771 1.563808 6.308093
P 5.030271 1.589274 2.672409
P 5.749199 4.694944 8.384484
P 7.939248 4.748545 4.683314
P 8.181949 1.602412 10.201288
P 10.379208 1.557415 2.855312
O 0.179856 1.567826 1.326212
O 0.233160 0.335575 3.532706
O 0.265673 2.840855 3.507139
O 1.249179 1.593222 5.828977
O 1.888155 4.907056 8.313110
O 1.939128 3.480100 0.287086
O 1.956653 6.003743 0.155321
O 2.549749 4.813495 2.377338
O 2.858595 1.503852 7.787970
O 3.413365 0.329838 5.557935
O 3.392639 2.841083 5.609361
O 3.513613 1.580569 2.743640
O 4.103659 4.752421 0.372073
O 5.108986 3.448534 9.055061
O 5.153083 5.960036 9.079915
O 5.262775 4.755157 6.869454
O 5.579508 1.617810 4.163191
O 5.674158 0.336366 1.980156
O 5.644588 2.822217 1.931801
O 6.654644 1.566595 10.609793
O 7.268241 4.601324 8.395243
O 7.323168 3.508389 5.397755
O 7.310704 6.045926 5.217019
O 7.923689 4.680259 3.165649
O 8.412466 1.699318 8.715839
O 8.778731 0.295471 10.834334
O 8.777839 2.852010 10.950005
O 8.862314 1.562242 2.767972
O 9.466865 4.748021 5.175311
O 10.581015 3.507531 7.477897
O 10.518223 6.025705 7.478742
O 10.478156 4.741287 9.674865
F 0.376258 1.584774 9.766543
F 1.262814 4.812065 5.269523
F 4.106678 1.504425 10.870037
F 4.942530 4.774092 4.326547
F 5.771440 1.601367 6.717529
F 6.670191 4.721902 0.168693
F 9.498207 1.624879 5.785221
F 10.327075 4.742188 1.218349
