39

Cr 1.027892 3.920146 3.038331
Cr 3.936136 2.855451 3.045430
Cr 5.016160 6.855409 7.927200
Cr 1.939668 5.317163 7.927200
Cr 1.025934 1.400350 3.045430
Cr 5.014765 4.190805 7.933573
Cr 3.982037 5.464526 10.473693
Cr 0.001191 5.186411 5.538930
Cr 5.945253 5.573044 12.816605
Cr 3.026222 4.113528 12.816605
Fe 1.994924 2.727451 0.661028
Fe 3.990453 5.454145 4.878426
Fe 0.004998 5.181721 0.007069
Fe 3.022882 6.647505 12.813899
Fe 1.993673 2.728994 9.778808
O 1.873547 5.311878 4.226700
O 5.050232 6.900221 4.226700
O 2.870862 3.922239 1.893834
O 0.245742 2.609679 1.893834
O 0.864056 4.122197 6.815891
O 1.995595 2.726619 4.041821
O 2.869845 1.648362 1.896501
O 3.989621 5.455172 6.821638
O 3.048639 6.615726 9.119901
O 0.001544 5.185976 1.935386
O 5.048604 4.149075 4.233329
O 5.853506 5.582546 9.135052
O 3.054075 4.182830 9.135052
O 4.867253 6.646895 11.659711
O 4.263042 2.872071 6.814352
O 2.243264 5.334901 11.659711
O 0.868450 1.174775 6.814352
O 4.860932 4.380530 11.684501
O 3.973638 5.474889 13.827357
O 0.003915 5.183063 8.909298
O 1.060982 3.879323 14.021784
O 1.998629 2.722876 11.726389
O 3.866639 2.857858 14.023307
O 1.052566 1.450821 14.023307
