15

Li 1.307077 2.600984 1.088191
Li 0.557656 3.756387 -0.110429
Li 2.737001 4.841329 1.823075
Li 1.931054 6.217338 0.695585
Li 3.597079 1.992832 -0.308206
Li 2.791138 3.368849 -1.435700
Li 4.970477 4.453783 0.497808
Li 4.221056 5.609186 -0.700812
W 0.000000 0.000000 0.000000
O 0.517411 4.353931 1.483258
O 1.297425 1.973323 -0.575116
O 3.414374 3.039636 1.445039
O 2.113759 5.170534 -1.057660
O 4.230708 6.236847 0.962495
O 5.010722 3.856239 -1.095879
