16

Cr 5.202499 5.568923 9.630456
Te 5.327863 10.190183 8.734649
W 2.842437 11.934023 11.072424
W 2.362552 7.119015 7.701275
O 1.894416 4.729972 4.468045
O 1.240057 2.242749 4.708106
O 0.743105 3.447364 5.769450
O 4.529521 6.628086 7.103504
O 1.782587 9.184399 7.423813
O 4.028964 7.846083 8.206942
O 1.373768 6.861426 7.860527
O 3.539185 5.512243 8.534403
O 0.779441 8.070750 8.895416
O 4.565126 11.329588 10.185263
O 4.060132 12.385099 11.223162
O 3.435815 9.947148 11.525138
