40

Mn 1.238769 2.739672 9.708720
Mn 1.238769 0.536750 2.048673
Mn 3.704916 6.016095 13.217531
Mn 3.704916 3.813173 5.557484
P 1.255988 1.289167 14.182245
P 1.255988 1.987255 6.522198
P 1.293629 3.946779 12.752317
P 1.293629 5.882489 5.092270
P 3.650056 0.670356 10.173934
P 3.650056 2.606066 2.513887
P 3.687697 4.565590 8.744006
P 3.687697 5.263678 1.083959
O 0.316870 4.944869 13.353201
O 0.223291 4.247934 9.027904
O 0.316870 4.884399 5.693154
O 0.223291 5.581333 1.367856
O 0.765604 3.233823 11.515184
O 0.765604 0.042600 3.855137
O 1.432571 2.860808 13.934785
O 1.432571 0.415614 6.274738
O 1.726018 2.152865 7.958603
O 1.726018 1.123557 0.298556
O 2.258661 1.265584 10.416406
O 2.258661 2.010839 2.756359
O 2.180506 0.590162 13.171137
O 2.180506 2.686260 5.511089
O 2.763184 3.866585 9.755114
O 2.763184 5.962683 2.095067
O 2.685024 4.542006 12.509845
O 2.685024 5.287261 4.849798
O 3.217666 5.429288 14.967648
O 3.217666 4.399980 7.307601
O 3.511114 6.137231 8.991466
O 3.511114 3.692037 1.331419
O 4.178081 6.510245 11.411067
O 4.178081 3.319023 3.751020
O 4.720393 0.971512 13.898347
O 4.626814 1.668446 9.573049
O 4.720393 2.304911 6.238300
O 4.626814 1.607976 1.913002
