12

Mn -0.000020 2.489060 9.914315
Mn 1.449318 2.691699 4.956964
Co 1.449031 5.180851 4.957628
Co 0.000267 4.977859 0.000278
O 1.914258 6.090335 0.942888
O 0.951455 4.294746 8.960878
O 0.464595 3.398605 4.013630
O 2.433634 6.962965 5.900239
O 0.497842 0.886012 4.003527
O 1.946824 3.578097 0.954766
O 0.984702 1.782153 8.970981
O 2.401068 4.497252 5.912107
