28

Li 4.829604 10.688404 0.019823
Li 4.829604 10.688404 3.130703
Li 2.423301 5.460015 3.127534
Li 2.423301 5.460015 0.022993
Mn 0.141789 7.822634 4.725789
Mn 2.297793 2.293935 4.725789
Mn 2.596698 8.460760 1.575263
Sn 4.729692 3.035172 1.575263
P 0.477714 6.511712 1.575263
P 2.037017 0.806685 1.575263
P 2.855740 9.782244 4.725789
P 4.301430 4.451493 4.725789
O 1.124584 5.082931 1.575263
O 1.087704 7.233392 0.321259
O 1.087704 7.233392 2.829267
O 0.981445 4.292227 4.725789
O 1.315249 9.747368 4.725789
O 1.489247 1.580230 0.313156
O 1.489247 1.580230 2.837370
O 1.335912 10.224483 1.575263
O 3.451013 0.412358 4.725789
O 3.485022 9.032810 3.486624
O 3.485022 9.032810 5.964954
O 3.565221 0.682165 1.575263
O 3.779386 6.459090 1.575263
O 3.580819 3.761531 3.510033
O 3.580819 3.761531 5.941546
O 3.835785 5.940253 4.725789
