21

Li 5.202440 2.713883 10.162736
Li 0.000052 3.761412 3.414440
Li 0.067022 4.873175 5.996199
Al 2.499750 2.370497 4.176628
Al 2.577528 3.330967 6.763978
Al 2.566031 4.270146 9.349402
V 2.552159 1.403892 1.547948
V 2.780755 5.261933 4.915029
V 2.657582 0.468441 6.066179
O 1.598150 5.503609 3.190226
O 1.496965 2.686953 2.512230
O 1.598599 0.621605 4.368383
O 1.516526 3.647385 5.085741
O 1.527256 1.703007 6.982608
O 1.530163 4.473520 7.676293
O 3.682172 3.994169 3.986417
O 3.641177 1.257551 3.259365
O 3.580793 2.181406 5.816063
O 3.769543 4.899900 6.619978
O 3.668211 3.068200 8.517309
O 3.660492 0.088386 7.649320
