16

Li 0.936018 0.976442 3.142647
Li 1.690222 3.697898 4.672663
Li 3.626786 1.848767 1.614341
Li 4.380878 4.570102 3.144369
Co 4.310562 4.496801 0.002161
Co 1.005244 1.048616 6.284849
Si 1.710280 3.677258 1.637233
Si 3.605265 1.867882 4.649770
O 1.029720 4.327981 0.241789
O 1.042949 4.316708 2.963206
O 1.548207 2.028228 1.574876
O 1.961799 1.633311 4.711243
O 3.354948 3.905988 1.574704
O 3.761439 3.517841 4.713207
O 4.274835 1.230777 3.323793
O 4.286735 1.218108 6.045215
