24

Li 1.763876 3.208149 1.242715
Li 1.763876 6.121754 1.242715
Li 6.883761 3.011786 4.123990
Li 6.883761 0.098182 4.123990
Mn 2.898818 4.664952 4.087657
Mn 5.748820 1.554984 1.279048
B 0.514336 4.664952 3.751509
B 8.133302 1.554984 1.615196
P 3.714627 1.554984 3.780041
P 4.933010 4.664952 1.586664
O 0.791743 1.554984 1.515964
O 1.166047 4.664952 4.989747
O 1.540845 4.664952 2.744351
O 2.822070 0.355326 4.188547
O 2.822070 2.754641 4.188547
O 3.588130 4.664952 0.854725
O 4.029548 1.554984 2.256504
O 4.618089 4.664952 3.110201
O 5.059508 1.554984 4.511980
O 5.825567 3.465294 1.178157
O 5.825567 5.864609 1.178157
O 7.106793 1.554984 2.622354
O 7.481590 1.554984 0.376958
O 7.855894 4.664952 3.850741
