13

Li 3.028233 1.043623 4.246955
Ti 0.000097 5.094769 3.444026
V 0.000121 2.547336 1.721727
V 3.028251 1.043588 1.723229
V 3.028414 -1.503766 5.048603
O 4.624618 0.441262 2.858238
O 1.738149 1.935255 2.907590
O 4.623515 -2.191827 1.083381
O 1.647607 -0.583140 1.142674
O 4.409083 2.670270 7.351161
O 1.433235 4.278982 7.410472
O 4.318613 0.151920 5.586316
O 1.432096 1.645875 5.635681
