18

V 6.092519 5.038115 5.850237
V 4.915223 2.875518 3.270904
V 2.323542 4.006072 4.771289
V 1.408773 1.937480 2.294060
V 3.727988 6.129459 7.292081
V 0.031439 0.025949 0.030129
O 4.870541 1.290434 4.433864
O 2.469663 2.432129 6.012497
O 7.151887 2.813351 3.089167
O 0.214312 4.235283 5.150529
O 2.597546 2.865079 3.368007
O 4.870541 4.484402 2.141177
O 2.469663 5.702234 3.665156
F 4.639167 4.079680 4.751254
F 2.205482 5.247368 6.289400
F 5.212080 1.673625 1.792333
F 7.348371 3.252329 5.635350
F 7.348371 5.339384 4.137224
