64

Li 1.352851 6.019426 10.465953
Li 2.832246 1.512263 2.451991
Li 3.614199 4.673480 7.803137
Li 5.093594 2.858208 5.114807
Li 7.799296 3.464226 10.465953
Li 9.278691 1.648954 2.451991
Li 10.060644 4.810171 7.803137
Li 11.540039 0.303009 5.114807
Fe 1.465457 6.310972 5.297153
Fe 3.197798 1.563785 7.990449
Fe 3.248647 4.725002 2.639303
Fe 4.980987 3.149755 10.648299
Fe 7.911902 3.172680 5.297153
Fe 9.644243 1.597433 7.990449
Fe 9.695092 4.758650 2.639303
Fe 11.427432 0.011463 10.648299
P 0.037866 5.278297 2.583865
P 2.418281 3.172490 5.322796
P 4.028164 0.011273 10.673941
P 6.408579 2.117080 7.935011
P 6.484311 4.205355 2.583865
P 8.864726 6.311162 5.322796
P 10.474609 3.149944 10.673941
P 12.855023 1.044137 7.935011
O 12.873357 0.190135 6.616093
O 0.107308 6.250049 3.816041
O 1.254091 1.875512 8.046090
O 1.289676 4.378931 2.548044
O 1.583273 1.920029 5.103366
O 1.528246 4.391765 5.522340
O 3.047002 6.166941 1.193445
O 3.039615 0.184419 9.461265
O 3.406830 3.345636 4.110119
O 3.399442 3.005723 6.544591
O 4.918199 1.230548 0.171194
O 4.863172 5.081246 10.454512
O 5.156769 1.217714 7.899190
O 5.192354 5.036730 2.694944
O 6.339137 3.088832 9.167187
O 6.465978 3.351352 1.264947
O 6.426912 2.971083 6.616093
O 6.553752 3.233603 3.816041
O 7.700536 1.285705 8.046090
O 7.736121 5.104721 2.548044
O 8.029718 1.241189 5.103366
O 7.974691 5.091886 5.522340
O 9.493447 3.316711 1.193445
O 9.486060 2.976798 9.461265
O 9.853275 6.138015 4.110119
O 9.845887 0.155494 6.544591
O 11.364644 1.930669 0.171194
O 11.309617 4.402406 10.454512
O 11.603214 1.943504 7.899190
O 11.638798 4.446922 2.694944
O 12.785582 0.072386 9.167187
O 0.019533 6.132300 1.264947
F 2.945187 6.320285 3.842562
F 2.975357 6.294862 6.751134
F 3.471088 3.133645 1.399988
F 3.501258 3.159068 9.193707
F 9.391632 3.163367 3.842562
F 9.421802 3.188789 6.751134
F 9.917533 0.027572 1.399988
F 9.947703 0.002150 9.193707
