68

Sn 2.240690 8.955977 4.824005
Sn 2.188900 4.974394 7.713702
Sn 2.185837 4.339841 1.637231
Sn 2.237627 0.358258 11.211254
Sn 6.615426 8.874013 1.711218
Sn 6.667217 4.892430 11.285241
Sn 6.664154 4.257877 5.208769
Sn 6.612363 0.276294 8.098466
S 0.319639 2.518167 6.327817
S 0.833515 1.025401 1.780347
S 1.112404 3.420676 10.571688
S 3.314123 8.036812 8.353268
S 3.593012 5.641536 4.680888
S 4.106887 7.134302 12.597139
S 4.746166 2.097969 0.325333
S 5.260042 3.590735 8.241583
S 5.538931 1.195459 4.569204
S 7.740649 5.811595 2.350783
S 8.019538 8.206870 11.142124
S 8.533414 6.714104 6.594654
O 0.374829 5.682149 7.026477
O 0.298454 6.004891 1.568420
O 0.583036 8.665816 10.398345
O 0.495771 7.041158 4.979932
O 0.635791 1.363219 5.500194
O 0.917592 2.386413 2.304915
O 0.988674 1.067712 0.264511
O 1.139698 4.357078 9.378168
O 1.640037 3.167084 6.757524
O 1.733499 2.099086 10.111406
O 1.920201 3.981269 11.666619
O 1.789884 0.082943 2.365446
O 2.636643 4.699078 4.095790
O 2.506326 8.597405 7.258337
O 2.693028 6.715222 8.813550
O 2.786490 7.783220 12.167432
O 3.437853 5.683848 6.196725
O 3.286829 8.973213 9.546787
O 3.508934 7.002548 4.156321
O 3.790736 5.979354 0.961042
O 3.930756 2.425022 1.481304
O 4.128073 1.388755 4.892816
O 3.843491 4.049680 8.526611
O 4.051697 1.066013 11.898479
O 4.801356 8.166258 1.023992
O 5.009562 5.182591 4.395860
O 4.724981 7.843516 8.029656
O 4.922298 6.807249 11.441167
O 5.062318 3.252917 11.961430
O 5.344119 2.229723 8.766151
O 5.566224 0.259058 3.375684
O 5.415200 3.548423 6.725746
O 6.066564 1.449051 0.755040
O 6.160025 2.517049 4.108922
O 6.346727 0.634866 5.664135
O 6.216410 4.533193 8.826682
O 7.063170 9.149328 10.557025
O 6.932853 5.251002 1.255852
O 7.119555 7.133185 2.811065
O 7.213016 6.065187 6.164948
O 7.713356 4.875193 3.544303
O 7.864380 8.164559 12.657961
O 7.935461 6.845858 10.617557
O 8.217262 7.869052 7.422278
O 8.357282 2.191113 7.942540
O 8.270018 0.566455 2.524127
O 8.554599 3.227380 11.354051
O 8.478224 3.550122 5.895995
