24

V 0.037555 -0.007548 6.831155
V 8.996955 3.570761 7.749726
V 3.081142 2.818353 4.145255
V 2.881786 3.076729 7.617496
V 6.004335 0.742527 3.623649
V 6.064618 0.800344 7.049618
O 1.340893 3.829631 8.031280
O 4.210698 1.655685 4.094206
O 7.856687 2.143760 7.639582
F 1.831708 4.326183 4.162724
F 3.602824 3.076137 2.469442
F 1.184529 1.648486 3.503467
F 4.800648 4.248094 4.805070
F 2.409024 2.888061 5.828022
F 0.618016 0.102308 5.133544
F 7.266620 2.456304 3.686985
F 1.825899 1.287595 7.496679
F 8.499035 3.688778 6.043334
F 4.741615 2.159062 7.052039
F 7.849247 -0.081176 3.083006
F 6.635962 0.838033 5.343823
F 4.276220 -0.546500 6.351830
F 5.445760 0.665570 8.709952
F 7.287953 -0.617934 7.025452
