48

Mn 0.941484 1.169956 5.279894
Mn 1.056243 3.281964 7.277368
Mn 1.170023 5.279676 0.941611
Mn 3.053464 3.167170 5.165133
Mn 3.167328 5.164983 3.053733
Mn 3.281936 7.276965 1.056246
Mn 5.165030 3.053541 3.167487
Mn 5.279688 0.941491 1.170064
Mn 5.393409 7.390651 7.505904
Mn 7.276926 1.056300 3.282222
Mn 7.390638 7.505392 5.393696
Mn 7.505381 5.393393 7.391252
Sn 1.055627 7.391160 3.167855
Sn 3.167700 1.055744 7.391518
Sn 5.279106 5.279049 5.279727
Sn 7.391238 3.167674 1.055981
O 0.774784 1.041911 3.343135
O 0.880438 7.672062 5.265349
O 0.996448 5.219873 7.450880
O 1.070451 1.336816 7.216847
O 1.041892 3.342933 0.774856
O 1.115397 3.108017 5.339343
O 1.230284 5.293968 2.886656
O 1.336816 7.216697 1.070531
O 2.886570 1.230191 5.294144
O 2.993204 3.152945 7.110202
O 3.108065 5.338897 1.115685
O 3.181629 5.103896 4.998464
O 3.153002 7.110131 2.993204
O 3.227099 3.226998 3.227102
O 3.342973 0.774851 1.041682
O 3.448636 7.405036 7.566818
O 4.998229 3.181571 5.104228
O 5.103993 4.998301 3.182131
O 5.219893 7.450430 0.996558
O 5.293997 2.886656 1.230602
O 5.265270 0.880487 7.672559
O 5.338893 1.115505 3.108090
O 5.453627 7.376392 5.560843
O 5.560252 5.453653 7.376977
O 7.110125 2.993255 3.153277
O 7.216665 1.070466 1.337203
O 7.331408 7.331438 7.331795
O 7.405082 7.566421 3.448948
O 7.376405 5.560245 5.454326
O 7.450400 0.996462 5.220229
O 7.566452 3.448591 7.405785
O 7.672173 5.265244 0.880673
