48

Li 0.809423 8.809769 6.258576
Li 0.905967 5.903971 5.897968
Li 0.925571 8.915102 0.966349
Li 1.724095 1.404885 8.275485
Li 1.704490 4.416015 3.657057
Li 1.820639 4.310683 7.914878
Li 3.439484 4.687490 1.331933
Li 3.555633 4.582158 5.589754
Li 3.536028 7.593288 0.971325
Li 4.334552 0.083071 8.280462
Li 4.354156 3.094202 3.348842
Li 4.450701 0.188404 2.988235
Mn 0.763160 2.847013 1.142599
Mn 1.866902 7.346099 3.480807
Mn 3.393221 1.652074 5.766004
Mn 4.496964 6.151160 8.104212
B 0.890991 2.905051 5.878137
B 0.877915 5.959535 1.192605
B 1.739070 7.404138 8.295317
B 1.752147 1.460448 3.430800
B 3.507976 7.537724 5.816011
B 3.521053 1.594035 0.951494
B 4.382209 3.038638 8.054205
B 4.369132 6.093122 3.368674
O 0.457925 2.922346 8.768107
O 0.476394 6.000180 3.873158
O 0.962929 8.532068 8.362322
O 1.113389 0.267786 3.373383
O 1.087431 2.643168 3.051611
O 1.188967 6.147174 8.022641
O 1.441095 1.648087 6.150813
O 1.542631 7.142255 1.571795
O 1.516672 4.766872 1.250022
O 1.667133 4.032981 5.811132
O 2.172136 7.421432 5.405347
O 2.153668 1.501093 0.750247
O 3.106455 7.497080 8.496564
O 3.087987 1.576741 3.841464
O 3.592990 4.965192 3.435679
O 3.743451 4.231301 7.996789
O 3.717492 1.855918 7.675016
O 3.819028 7.350086 3.095998
O 4.071157 2.850999 1.224170
O 4.172693 6.355005 6.195200
O 4.146734 8.730387 5.873427
O 4.297195 0.466105 0.884489
O 4.783730 2.997993 5.373652
O 4.802198 6.075827 0.478704
