32

Li 0.019560 9.105726 3.875432
Li 1.611371 0.998089 3.876224
Li 1.561831 6.498536 3.876224
Li 3.153642 3.605279 3.875432
Li 3.192761 7.395615 1.321689
Li 4.784572 4.502358 1.322481
Li 4.735032 10.002805 1.322481
Li 6.326843 1.895168 1.321689
Mn 1.551619 4.585239 1.321572
Mn 1.621582 10.085685 1.321572
Mn 4.724820 0.915208 3.875315
Mn 4.794783 6.415655 3.875315
Si 0.021051 7.349114 1.348575
Si 3.152150 1.848667 1.348575
Si 3.194252 9.152227 3.902318
Si 6.325351 3.651780 3.902318
O 6.292248 3.638656 0.444908
O 6.342334 8.911945 0.783861
O 1.784443 1.083423 0.786369
O 1.348763 4.466891 3.412224
O 1.824438 9.967338 3.412224
O 1.388758 6.583870 0.786369
O 3.177269 3.411498 0.783861
O 3.227355 9.139103 0.444908
O 3.119047 1.861791 2.998651
O 3.169133 7.589396 3.337604
O 4.957644 4.417024 3.340111
O 4.521964 1.033556 0.858481
O 4.997639 6.534003 0.858481
O 4.561959 9.917471 3.340111
O 0.004068 2.088949 3.337604
O 0.054154 7.362238 2.998651
