36

Li 1.499874 1.822495 2.284235
Li 1.613237 3.959765 7.404469
Li 7.001754 5.259862 7.294135
Fe 3.188134 4.406089 5.151900
Fe 5.780941 8.010035 9.436084
Fe 7.612588 10.573757 12.524133
S 0.331252 5.679554 5.413784
S 4.168603 2.626638 7.640080
S 6.740295 7.246645 5.283931
S 2.269286 5.275579 9.336518
S 4.808050 9.765068 7.037243
S 8.587115 6.682562 9.269774
O 0.988353 2.751550 4.865266
O 2.683679 5.249419 3.615972
O 0.032055 7.021470 4.954121
O 4.616274 3.407409 4.966196
O 0.251482 5.317226 6.596828
O 2.084207 5.711656 5.445016
O 3.391083 3.684750 6.822782
O 3.040154 1.823183 8.312449
O 5.647559 5.925351 5.811752
O 0.440461 5.281512 8.856172
O 2.484460 4.069884 9.024517
O 3.163180 8.967086 6.354954
O 5.930512 3.541642 8.291438
O 6.410580 8.472261 5.523714
O 8.570144 7.335877 5.752458
O 3.432074 6.604036 8.913779
O 6.062123 10.650147 6.393324
O 5.649150 8.810784 7.880169
O 6.861864 6.671198 9.281246
O 8.644826 6.897780 8.127024
O 4.446441 9.119281 9.668043
O 8.795853 5.294120 9.810263
O 6.155844 7.140313 11.019316
O 8.003078 9.583423 9.824321
