136

Ni 0.013213 3.454507 1.448797
Ni 0.013213 0.878739 13.314460
Ni 8.491072 6.920394 4.309988
Ni 8.491072 6.079345 16.175651
Ni 4.320832 2.587147 4.309988
Ni 4.320832 1.746099 16.175651
Ni 4.257421 5.211985 13.314460
Ni 4.257421 7.787754 1.448797
Ni 4.283848 3.454507 10.416865
Ni 4.283848 0.878739 22.282528
Ni 4.220438 6.079345 19.421337
Ni 4.220438 6.920394 7.555674
Ni 0.050197 2.587147 7.555674
Ni 0.050197 1.746099 19.421337
Ni 8.528056 7.787754 10.416865
Ni 8.528056 5.211985 22.282528
S 1.215773 8.217855 7.113299
S 1.215773 4.781885 18.978961
S 1.242140 2.212209 10.602278
S 1.242140 2.121037 22.467941
S 1.716846 0.797881 2.785322
S 1.716846 3.535366 14.650985
S 2.553788 5.131127 2.785322
S 2.553788 7.868612 14.650985
S 3.028495 6.454284 22.467941
S 3.028495 6.545455 10.602278
S 3.054862 3.884608 7.113299
S 3.054862 0.448638 18.978961
S 5.486408 4.781885 16.618027
S 5.486408 8.217855 4.752364
S 5.512774 2.212209 1.263385
S 5.512774 2.121037 13.129047
S 5.987481 0.797881 9.080341
S 5.987481 3.535366 20.946004
S 6.824423 5.131127 9.080341
S 6.824423 7.868612 20.946004
S 7.299130 6.545455 1.263385
S 7.299130 6.454284 13.129047
S 7.325497 3.884608 4.752364
S 7.325497 0.448638 16.618027
O 0.475621 3.387741 10.996432
O 0.475621 0.945506 22.862094
O 0.751299 0.874761 6.654786
O 0.751299 3.458485 18.520449
O 0.695541 0.956009 11.272641
O 0.695541 3.377237 23.138303
O 0.725051 7.886630 8.464964
O 0.725051 5.113109 20.330627
O 0.822020 1.628893 1.943904
O 0.822020 2.704353 13.809567
O 0.751264 7.150975 6.183244
O 0.751264 5.848765 18.048907
O 0.860157 0.013589 3.707592
O 0.860157 4.319657 15.573255
O 1.184187 1.985702 9.141188
O 1.184187 2.347545 21.006851
O 1.562070 3.885059 7.066524
O 1.562070 0.448188 18.932187
O 1.646338 5.959678 3.591356
O 1.646338 7.040061 15.457019
O 1.614958 6.310238 22.907231
O 1.614958 6.689501 11.041569
O 1.826619 0.103755 13.727528
O 1.826619 4.229491 1.861865
O 2.444016 4.437002 13.727528
O 2.444016 8.562738 1.861865
O 2.655677 1.976992 22.907231
O 2.655677 2.356255 11.041569
O 2.624296 1.626432 3.591356
O 2.624296 2.706814 15.457019
O 2.708565 8.218305 7.066524
O 2.708565 4.781434 18.932187
O 3.086447 6.318948 9.141188
O 3.086447 6.680791 21.006851
O 3.410478 8.652904 15.573255
O 3.410478 4.346835 3.707592
O 3.519370 2.817728 6.183244
O 3.519370 1.515518 18.048907
O 3.448614 5.962140 1.943904
O 3.448614 7.037600 13.809567
O 3.545583 0.779863 20.330627
O 3.545583 3.553383 8.464964
O 3.575094 7.710483 23.138303
O 3.575094 5.289256 11.272641
O 3.519336 5.208008 6.654786
O 3.519336 7.791732 18.520449
O 3.795014 5.278752 22.862094
O 3.795014 7.720987 10.996432
O 4.746255 3.387741 0.869231
O 4.746255 0.945506 12.734894
O 5.021933 0.874761 5.210877
O 5.021933 3.458485 17.076540
O 4.966176 0.956009 0.593022
O 4.966176 3.377237 12.458685
O 4.995686 5.113109 15.266362
O 4.995686 7.886630 3.400699
O 5.092655 1.628893 9.921759
O 5.092655 2.704353 21.787421
O 5.021899 7.150975 5.682418
O 5.021899 5.848765 17.548081
O 5.130792 0.013589 8.158070
O 5.130792 4.319657 20.023733
O 5.454822 1.985702 2.724475
O 5.454822 2.347545 14.590138
O 5.832705 3.885059 4.799138
O 5.832705 0.448188 16.664801
O 5.916973 5.959678 8.274306
O 5.916973 7.040061 20.139969
O 5.885592 6.689501 0.824094
O 5.885592 6.310238 12.689757
O 6.097253 4.229491 10.003798
O 6.097253 0.103755 21.869461
O 6.714651 8.562738 10.003798
O 6.714651 4.437002 21.869461
O 6.926312 2.356255 0.824094
O 6.926312 1.976992 12.689757
O 6.894931 1.626432 8.274306
O 6.894931 2.706814 20.139969
O 6.979199 4.781434 16.664801
O 6.979199 8.218305 4.799138
O 7.357082 6.318948 2.724475
O 7.357082 6.680791 14.590138
O 7.681112 4.346835 8.158070
O 7.681112 8.652904 20.023733
O 7.790005 2.817728 5.682418
O 7.790005 1.515518 17.548081
O 7.719249 5.962140 9.921759
O 7.719249 7.037600 21.787421
O 7.816218 3.553383 3.400699
O 7.816218 0.779863 15.266362
O 7.845728 5.289256 0.593022
O 7.845728 7.710483 12.458685
O 7.789971 5.208008 5.210877
O 7.789971 7.791732 17.076540
O 8.065649 5.278752 12.734894
O 8.065649 7.720987 0.869231
