68

Li 0.943953 8.147693 2.846366
Li 3.324624 0.925457 0.542365
Li 5.212530 13.519014 6.235098
Li 7.593200 6.296778 3.931096
V 0.408750 9.706598 6.230292
V 0.628411 2.532520 4.604778
V 1.669210 4.691362 7.512303
V 1.946548 14.383010 5.897964
V 1.368139 12.087884 0.954329
V 2.322029 7.160774 5.608474
V 2.599367 11.913597 3.994134
V 3.640165 9.754756 6.901660
V 2.900438 4.865649 2.434403
V 3.859826 2.484362 5.276146
V 4.677327 11.960109 1.501317
V 5.636715 9.578822 4.343060
V 4.896988 4.689715 -0.124198
V 5.937786 2.530874 2.783328
V 6.215124 7.283697 1.168989
V 7.169015 2.356587 5.823134
V 6.590605 0.061461 0.879499
V 6.867943 9.753109 -0.734841
V 7.908742 11.911951 2.172685
V 8.128403 4.737873 0.547171
F 0.290127 1.305347 6.271571
F 0.621197 6.018505 6.265031
F 0.003603 3.573085 0.159418
F 0.868826 13.018729 4.597225
F 0.879617 8.418238 4.659117
F 1.792170 13.594963 7.766964
F 1.125077 3.738359 2.979409
F 1.925444 8.541203 7.213715
F 1.132026 10.875748 2.757508
F 2.075809 3.561039 5.792119
F 2.192768 10.783274 5.714319
F 1.359490 5.760903 1.207522
F 2.343133 1.318968 4.292723
F 2.476406 6.372727 3.739474
F 3.388960 1.196002 6.847321
F 3.399750 5.796494 6.909213
F 2.909086 12.983138 2.181209
F 3.647379 13.240741 5.241407
F 3.978450 8.527582 5.234867
F 3.136550 3.653512 0.631223
F 3.143499 10.960594 0.409322
F 4.264974 10.795321 3.229313
F 4.272179 3.649150 3.548150
F 5.393654 3.483876 6.368140
F 5.400603 10.790959 6.146240
F 4.558703 5.916889 1.542596
F 4.889774 1.203730 1.536056
F 5.628067 1.461333 4.596253
F 5.137403 8.647977 -0.131750
F 5.148194 13.248469 -0.069858
F 6.060747 8.071744 3.037989
F 6.194020 13.125503 2.484740
F 7.177663 8.683568 5.569941
F 6.344385 3.661197 1.063143
F 6.461344 10.883432 0.985344
F 7.405127 3.568723 4.019954
F 6.611709 5.903267 -0.436252
F 7.412076 10.706112 3.798054
F 6.744983 0.849508 -0.989502
F 7.657536 6.026233 2.118346
F 7.668327 1.425741 2.180238
F 8.533550 10.871385 6.618045
F 7.915956 8.425965 0.512431
F 8.247026 13.139124 0.505892
