28

Li 1.440167 3.514599 0.652532
Li 2.028601 5.671746 2.611460
Li 4.183565 2.821788 3.961419
Li 1.612084 3.483898 5.748363
Li 1.211332 1.282061 9.014468
Fe 5.236277 7.139312 -2.219356
Fe 3.040372 4.281362 -1.773121
Fe 4.585747 5.068861 0.665740
Fe 1.578938 6.100074 -1.104945
Fe 6.102451 5.847341 3.255243
Fe 4.656124 5.071326 5.698566
Fe 4.612776 7.640422 3.927021
O 3.858747 5.882404 -1.316247
O 1.019684 4.469909 -1.318582
O 4.070636 6.041135 3.675827
F 2.317345 5.125870 1.114089
F 3.867618 3.311073 0.409891
F 5.452804 6.732968 1.101381
F 0.743740 1.776143 0.403985
F 5.393169 4.139586 2.765493
F 2.040978 2.437746 2.850892
F 0.801865 4.362934 3.715453
F 5.573833 6.769268 6.106998
F 0.739569 1.824342 5.447598
F 2.448121 5.133403 6.116421
F 3.865691 3.351748 5.462718
F 5.271711 3.988573 7.880864
F 2.385104 2.610927 7.860296
