56

Li 1.066077 7.348561 3.136784
Li 2.098319 6.295179 6.280785
Li 2.149764 2.061801 2.080707
Li 3.188953 1.012597 7.334049
Li 5.315826 5.186418 5.266431
Li 6.350194 6.238918 2.121263
Li 6.401784 2.116269 6.318185
Li 7.437767 3.165600 1.063409
V 1.124427 5.276675 1.035167
V 1.053807 3.067699 7.430157
V 0.994726 1.044400 5.164194
V 3.254480 7.306738 0.962532
V 3.196700 5.291829 3.234824
V 3.126743 3.075031 5.229211
V 5.375936 7.258016 7.367369
V 5.303845 1.110532 0.968599
V 5.247460 3.131646 3.236257
V 7.506993 5.227736 7.438418
V 7.446875 7.243601 5.167730
V 7.379027 1.100731 3.166826
Cu 8.486072 4.237119 4.145894
Cu 4.269783 4.115200 8.342513
Cu 4.235115 8.294610 4.255534
Cu 0.019643 0.062143 0.057704
O 0.866241 1.092511 3.322739
O 0.832516 7.480391 5.306569
O 0.987727 5.110360 7.413422
O 1.097539 3.292115 0.849777
O 1.017013 1.249162 7.225021
O 1.135549 3.078140 5.366425
O 1.296882 5.180642 2.984115
O 1.261032 7.152343 1.026777
O 2.992646 1.199078 5.222706
O 2.956082 3.177147 7.178107
O 3.115893 5.277118 1.169316
O 3.235568 7.107307 3.030174
O 3.155187 5.063920 5.049242
O 3.264786 3.247563 3.214010
O 3.420107 0.875510 1.103319
O 3.384427 7.270586 7.523211
O 5.117419 3.086714 5.075966
O 5.083380 5.055699 3.097366
O 5.239254 7.424529 0.989389
O 5.350341 0.885725 7.549652
O 5.266448 2.928264 1.174541
O 5.387722 1.097112 3.032129
O 5.548120 7.356069 5.416794
O 5.512091 5.382534 7.375323
O 7.243858 2.976747 3.173414
O 7.207583 1.001290 1.218526
O 7.367113 7.257297 7.232943
O 7.486330 5.427642 5.372700
O 7.408856 7.469979 3.354184
O 7.515556 0.928935 5.184053
O 7.672586 3.301560 7.293292
O 7.636490 5.264745 0.879202
