36

Li 0.000000 0.000000 0.000000
Li 4.339893 5.943813 6.984789
Ni 3.086367 4.227014 4.967316
Ni 1.253526 1.716799 2.017472
Ni 5.593419 7.660612 9.002261
Ni 7.426260 10.170827 11.952105
S 0.385556 5.801314 5.291178
S 4.725449 9.544732 6.569597
S 2.169947 5.172302 9.198764
S 6.509840 6.715324 4.770813
S 3.954337 2.342894 7.399981
S 8.294230 6.086311 8.678400
O 0.548215 7.061432 4.440383
O 0.802533 5.890060 8.847904
O 4.264041 8.864032 9.283930
O 5.243494 2.731806 8.384426
O 2.026747 5.458515 5.597013
O 4.888108 8.214314 7.284424
O 6.366641 10.239276 6.248500
O 8.603934 5.799011 7.640906
O 2.686524 5.168331 3.380406
O 0.903600 2.772722 4.818898
O 1.653369 3.799587 8.812934
O 3.537360 6.007734 8.610934
O 5.142426 5.879891 5.358643
O 7.776186 9.114904 9.150680
O 7.026417 8.088039 5.156644
O 0.075853 6.088614 6.328671
O 5.993262 6.719294 10.589172
O 2.313146 1.648349 7.721077
O 3.791678 3.673311 6.685154
O 6.653039 6.429111 8.372564
O 4.415746 3.023594 4.685648
O 3.436293 9.155820 5.585152
O 7.877253 5.997565 5.121673
O 8.131571 4.826193 9.529195
