40

Li 2.075203 7.562480 7.755255
Li 6.353531 4.615725 6.381859
Li 6.360670 9.004792 6.268484
Li 6.361027 6.193040 9.556310
Cr 4.681037 3.683502 3.959940
Ni 0.089041 7.538966 2.423134
Ni 0.579237 5.163413 6.437009
Ni 4.111739 6.007083 7.014198
Ni 3.591013 8.408370 10.089968
Ni 7.814820 6.957688 7.642365
P 2.070474 3.052394 5.681170
P 2.041099 8.257544 5.142020
P 2.050663 5.287416 9.206373
P 6.216799 6.832340 4.830300
P 6.285722 3.814583 8.919035
P 6.146381 9.039588 8.402520
O 0.427697 1.017893 2.737103
O 0.433339 4.177549 2.208489
O 0.432757 2.665882 4.738187
O 1.860906 1.695762 6.521296
O 3.634499 3.406703 5.225672
O 2.332412 4.311230 6.288268
O 1.873512 7.996229 3.916945
O 2.342899 7.003383 6.013794
O 4.640318 7.110485 4.062999
O 2.367804 5.587390 7.991607
O 6.428387 5.420227 4.645467
O 4.810215 10.139499 10.820169
O 3.625981 9.456181 5.613442
O 1.824043 6.657128 9.393376
O 5.983547 6.544669 6.079345
O 3.632471 4.953536 9.979656
O 6.020385 5.169616 8.158252
O 6.413778 4.119104 10.174568
O 6.012183 7.805464 7.764238
O 4.474028 8.615124 8.697483
O 6.395646 10.338200 7.454461
O 7.641557 9.427284 9.398354
O 7.791917 7.949023 11.803452
O 7.970266 11.131921 11.417793
