40

Li 0.968631 10.931096 3.046539
Li 0.951854 4.129282 2.275534
Li 3.479331 -0.750636 2.579459
Li 3.485678 6.103426 5.828088
Mn 6.622351 5.263328 3.456244
Mn 2.230298 8.558375 4.442480
Mn 0.024256 13.571134 1.640804
Mn 2.224841 1.708496 3.619305
Mn 2.225872 8.549507 1.963223
Mn 4.453894 10.191756 5.613418
Mn 2.222297 1.714522 6.100487
Mn 4.454891 3.421453 4.773093
Mn 4.583018 10.079889 8.084681
Mn 4.603371 3.277870 7.258208
Mn 0.042620 6.828462 3.300797
Mn 6.557919 -1.540163 5.145072
O 0.836065 8.882869 3.187814
O 1.482866 6.643223 2.032723
O 0.831506 2.119772 2.355834
O 0.725794 8.759503 5.673121
O 1.450951 -0.148620 1.311554
O 1.572223 6.705748 4.651847
O 3.031770 10.418233 4.299185
O 0.737717 1.883086 4.853270
O 3.662771 8.253545 3.214879
O 1.478916 -0.141405 3.713643
O 3.021695 3.548715 3.463489
O 2.836735 10.381143 6.727333
O 3.611388 1.297718 2.399374
O 3.702251 8.279508 5.693518
O 5.081748 12.096119 5.438643
O 2.957062 3.569971 6.001414
O 6.152422 10.038529 4.543658
O 3.706054 1.526005 4.869304
O 5.071538 5.314603 4.693100
O 5.182385 12.069907 8.061980
O 6.072104 3.323134 3.634312
O 5.902549 9.898593 6.799667
O 5.262543 5.417105 7.113279
O 5.959596 3.128432 5.968979
