22

Li 0.817620 3.463612 5.957388
Li 3.533406 2.487714 9.216762
Li 4.809343 6.578211 7.943198
V 0.442513 0.605268 2.490807
V 5.222603 4.973848 9.511338
V 1.240230 1.696385 7.460615
V 2.710220 5.876655 6.147110
V 2.218809 3.034883 2.730981
V 3.000350 4.103874 7.698602
V 3.926952 5.371278 2.961941
O 0.772359 2.059752 3.998410
O 0.176654 3.645970 2.598867
O 1.934187 1.642257 1.229502
O 1.506674 3.040055 9.002821
O 2.640604 2.632585 6.143780
O 1.244829 4.892249 7.499627
O 2.350703 4.493493 4.324308
O 4.118825 2.229379 2.843876
O 3.357228 5.514212 9.269363
O 3.830843 3.961615 1.373452
O 4.938300 3.565026 7.922243
O 4.425121 5.130472 6.368740
