18

Li 1.113662 4.325558 -0.188631
Li 2.518162 2.026676 1.137812
Li 3.922662 -0.272206 2.464255
Ni 0.544573 3.361001 2.510224
Ni 0.000000 2.465041 -1.443224
Ni 1.515687 0.289943 -0.131757
Ni 3.520637 3.763409 2.407380
Ni 4.491751 0.692352 -0.234601
O 0.280050 0.329386 5.433984
O 0.581474 1.484764 2.514664
O 1.587998 3.290671 3.792960
O 1.052995 2.146009 -0.121944
O 2.250234 3.892271 1.273443
O 2.786089 0.161081 1.002180
O 3.983329 1.907343 2.397567
O 3.448325 0.762681 -1.517337
O 4.454850 2.568588 -0.239041
O 4.756274 3.723966 -3.158361
