14

Li 0.765893 3.748978 3.917171
Li 3.292587 4.405515 1.786195
Li 1.342964 2.712593 6.339376
Li 3.981050 3.424826 4.208400
Mn 4.578993 2.289497 0.000000
Si 2.596228 5.371014 5.944684
Si 1.901401 1.678133 2.180887
O 1.578628 5.084186 2.779070
O 3.941489 5.460385 6.985906
O 2.285826 3.979098 5.246100
O 0.409722 2.169008 2.879470
O 2.689541 2.655463 1.139665
O 1.095828 1.053375 5.346501
O 3.135389 6.368027 4.736097
