18

Li 3.982217 4.590137 4.770423
Li 3.225838 5.693257 2.432390
Li 3.188354 5.663557 -0.518963
Li 1.971278 2.444185 4.028773
Li 1.933824 2.414528 1.077459
Li 1.177527 3.517710 -1.260678
Mn -0.000160 0.000023 7.208452
Mn 0.000057 5.275907 0.307234
F 3.851457 6.510125 0.868857
F 5.084610 4.874596 -0.714361
F 3.315456 3.940395 3.263486
F 2.147499 5.332947 -2.270080
F 4.200010 7.523720 -1.844751
F 3.012080 2.774746 5.779899
F 1.844170 4.167355 0.246317
F 0.075062 3.233258 4.224054
F 1.308066 1.597615 2.640954
F 0.959585 0.584023 5.354565
