22

Li 4.006131 5.889560 1.248050
Li 1.179094 0.237872 6.625076
Mn 1.083868 4.617241 2.678429
Mn 4.100843 1.511428 5.194673
P 1.437295 1.496084 3.513346
P 3.747287 4.632587 4.359993
C 1.369722 4.777469 0.278495
C 3.815534 1.349844 7.595068
O 3.660549 1.150099 0.218612
O 0.201501 4.654501 0.943236
O 2.361667 4.665826 1.118164
O 1.002378 0.320206 2.625668
O 1.051259 2.728498 2.694978
O 2.969997 1.406464 3.701987
O 4.466237 4.683675 2.961638
O 0.718557 1.445192 4.911846
O 2.214719 4.722361 4.171351
O 4.133385 3.400147 5.178432
O 4.182209 5.808478 5.247799
O 2.823376 1.462214 6.755097
O 4.983671 1.473523 6.929684
O 1.524956 4.976442 7.653782
