28

Li 1.981516 2.443026 8.487072
Li 5.843588 2.260458 9.337913
Li 5.861387 2.258491 4.567551
Li 3.979419 -0.215917 3.685630
Mn 3.876804 2.355114 1.948715
Mn 4.877836 1.017924 6.683304
Mn 4.896995 -1.505270 6.721200
V 1.897489 2.498955 4.573179
V 3.842230 -0.180370 9.350761
Cr 0.999696 3.762078 1.963844
Cr 0.999978 1.244648 1.993304
Cr 2.004783 -0.099267 6.756327
O 1.145744 3.764596 5.533627
O 0.262354 2.550525 3.237591
O 2.017574 2.445835 0.957867
O 5.826701 2.260011 2.796024
O 5.873812 -2.858663 7.602082
O 0.936981 1.228863 5.659051
O 2.858644 3.528781 3.128047
O 2.872352 1.311659 3.182909
O 1.932916 -0.108940 0.881151
O 3.968436 2.354278 5.612970
O 2.982801 0.903204 8.066079
O 3.125635 -1.319671 7.925738
O 3.960696 -0.212176 5.718271
O 4.850349 1.038983 0.829046
O 5.657380 -0.311509 7.865418
O 4.840807 -1.522134 0.849151
