28

Li 0.174481 4.037604 5.585505
Li 4.414214 1.345868 1.592961
Li 4.763175 4.037604 6.392126
Li 9.002908 1.345868 2.399583
Fe 2.051458 4.037604 0.774601
Fe 2.537236 1.345868 4.767145
Fe 6.640152 4.037604 3.217942
Fe 7.125930 1.345868 7.210486
F 0.973840 5.289122 1.457430
F 0.973840 2.786087 1.457430
F 1.239746 0.105365 4.559189
F 1.239746 2.586371 4.559189
F 1.484562 4.037604 7.005269
F 3.104132 1.345868 3.012726
F 3.348948 2.797102 0.566646
F 3.348948 5.278107 0.566646
F 3.614854 0.094351 5.449974
F 3.614854 2.597386 5.449974
F 5.562534 2.786087 2.535114
F 5.562534 5.289122 2.535114
F 5.828440 0.105365 7.418442
F 5.828440 2.586371 7.418442
F 6.073256 4.037604 4.972362
F 7.692826 1.345868 0.979818
F 7.937642 2.797102 3.425898
F 7.937642 5.278107 3.425898
F 8.203548 0.094351 6.527657
F 8.203548 2.597386 6.527657
