14

Li 0.000000 0.000000 0.000000
Li 3.397549 0.812206 0.812205
V 1.698774 2.631707 3.526497
V 5.096323 3.992635 3.894250
F 0.403683 3.477701 2.346897
F 2.452031 1.677754 2.253426
F 1.698774 1.197772 4.687950
F 0.945517 3.726308 4.685646
F 2.993865 4.029867 2.888385
F 3.801232 2.594475 4.532362
F 5.849580 2.898034 2.735101
F 5.096323 5.426570 2.732796
F 4.343066 4.946588 5.167321
F 6.391414 3.146641 5.073850
