24

Cr 2.208328 4.620731 2.158446
Cr 7.924732 1.540244 2.934289
Sn 2.837328 1.540244 4.863321
Sn 7.295732 4.620731 0.229414
P 0.998887 1.540244 2.053420
P 4.073926 4.620731 4.612800
P 6.059134 1.540244 0.479935
P 9.134173 4.620731 3.039314
O 0.484472 4.620731 3.232167
O 1.253703 1.540244 3.581549
O 1.754813 0.360331 1.307186
O 1.754813 2.720157 1.307186
O 3.362879 5.862174 3.935819
O 3.362879 3.379289 3.935819
O 3.928000 4.620731 1.088680
O 4.559411 1.540244 0.910088
O 5.573649 4.620731 4.182646
O 6.205060 1.540244 4.004050
O 6.770181 0.298801 1.156916
O 6.770181 2.781686 1.156916
O 8.378247 3.440818 3.785549
O 8.378247 5.800644 3.785549
O 8.879357 4.620731 1.511186
O 9.648588 1.540244 1.860568
