14

Li 2.244491 4.972818 1.808916
Li 3.672872 3.179591 -0.204355
Li 0.000000 0.000000 2.394774
Li 2.958681 1.479341 2.394774
V 0.000000 2.596864 0.802280
V 0.000000 2.596864 -1.592493
O 4.632390 4.949077 -0.400584
O 1.243930 3.254847 -0.400584
O 1.284973 3.203332 2.005145
O 4.673433 4.897561 2.005145
F 4.529238 7.298213 -1.921533
F 4.529238 7.298213 0.389840
F 1.388125 0.854195 1.214721
F 1.388125 0.854195 3.526094
