54

Li 0.131014 2.240936 7.593536
Li 2.999466 5.736268 4.793589
Li 4.717476 4.393231 9.952365
Li 1.711508 0.723344 2.511867
Li 2.364257 6.429126 8.347416
Li 5.390564 2.523126 4.767075
Li 5.763718 2.011024 0.171131
Li 3.801534 -0.855641 0.219411
Li 7.838151 0.490939 5.293696
Li 5.709011 -2.271087 5.366491
Li 8.658863 1.286334 2.476975
Li 8.297990 -1.193213 0.151710
V 8.674100 -4.044771 4.355969
V 2.942951 3.623934 7.446826
V 8.628493 3.431532 10.075105
V 2.913311 3.661223 2.297065
V 5.797339 -0.173486 7.830819
V 5.775652 -0.148653 2.730512
F 0.679964 6.668932 7.180339
F 0.586864 6.733538 2.209243
F 0.962461 3.874547 6.706739
F 1.001175 3.928951 1.517571
F 2.373584 4.736618 8.752166
F 2.046896 4.713952 3.680248
F 0.518580 1.362065 5.966546
F 3.632510 5.040919 6.455965
F 2.144603 2.366771 8.346017
F 0.611288 1.329124 0.826202
F 3.616630 5.025998 1.390970
F 2.205837 2.304715 3.054135
F 3.694962 2.763718 6.035324
F 1.953649 -0.460683 9.442599
F 4.801449 3.443890 8.354175
F 3.826289 2.817478 0.842863
F 1.933336 -0.310762 4.216077
F 4.674511 3.475232 3.264257
F 3.978129 -0.091166 6.999141
F 6.618103 3.760660 5.638750
F 5.113134 0.733802 9.296728
F 3.828340 0.035150 1.875931
F 6.616209 3.761072 0.535044
F 5.138253 0.874796 4.058476
F 6.532618 1.071482 6.828201
F 4.962511 -1.502958 8.810844
F 7.939708 2.034768 9.515831
F 6.560432 1.159406 1.767843
F 5.079139 -1.469642 3.719159
F 7.976127 2.018626 4.287957
F 6.685649 -1.179661 6.387361
F 6.439588 -1.091829 1.324431
F 7.620365 -0.603972 8.645252
F 7.678523 -0.313940 3.554225
F 8.216816 -3.177625 7.968048
F 8.200736 -3.265228 2.827229
