28

Li 3.416777 4.666284 11.648097
Li 3.416104 4.677525 7.404556
Li 3.418629 4.676094 0.278990
Li 3.426830 4.675691 4.527709
Li 1.705165 2.332694 14.263934
Li 1.713033 2.339209 7.138122
V 5.129891 2.566398 9.310908
V 0.004988 4.447089 12.159922
V 0.004244 0.002912 5.017812
V 5.125283 2.559608 2.165328
F 5.034894 5.507866 5.987262
F 3.452700 6.086875 13.085130
F 5.040042 4.049125 13.103760
F 3.447650 3.256599 5.935611
F 3.733919 3.170501 10.775976
F 1.781379 5.232031 5.946901
F 3.469722 3.137551 1.163189
F 1.774857 3.875163 13.065662
F 3.727678 6.199209 3.650993
F 3.471744 1.759238 8.270486
F 1.494100 4.001682 3.603256
F 1.633175 3.809690 8.257555
F 0.044242 3.021547 1.098963
F 5.018508 5.735907 10.768581
F 1.635356 0.842163 1.112670
F 1.522223 5.101587 10.734567
F 0.029534 1.423129 8.225088
F 5.016748 3.828762 3.658104
