28

Li 1.984128 2.505398 9.218789
Li 0.006807 0.008095 9.786007
Li 5.969643 -3.047401 4.500673
Li 3.992322 -0.252842 3.966453
Mn 1.027692 3.809835 2.553931
Mn 0.995390 1.251366 2.256674
Mn 3.957498 2.312274 2.366802
Mn 2.018952 -0.149309 7.039717
Mn 4.948758 0.907808 7.177954
Mn 4.981060 -1.655512 6.880160
Nb 1.994568 2.565329 5.129091
Nb 3.981881 -0.191336 9.769250
O 1.042550 3.781237 6.232342
O 0.221350 2.673920 3.728828
O 1.983667 2.498917 1.422208
O 0.009503 5.162134 3.564574
O 5.966947 2.107043 8.171607
O 0.935350 1.181764 6.005567
O 2.973798 3.555866 3.927649
O 2.834875 1.232215 3.440054
O 2.003928 -0.294209 0.866326
O 3.972522 2.165115 6.085481
O 3.002652 0.946404 8.584149
O 3.141575 -1.398137 8.094235
O 3.992783 -0.259392 6.062185
O 4.933900 0.881449 0.964293
O 5.755100 -0.349319 8.339397
O 5.041100 -1.734145 0.735729
