22

Li 0.781424 2.557138 7.692752
Li 1.786803 2.952786 2.564251
Li 3.349651 -0.931430 7.692752
Li 4.355029 -0.535781 2.564251
Mn 0.834812 3.365273 5.128501
Mn 1.733414 2.144651 0.000000
Mn 3.403039 -0.123295 0.000000
Mn 4.301641 -1.343916 5.128501
Fe 0.000000 0.000000 0.000000
Fe 2.568227 1.010678 5.128501
O 0.103068 2.947924 1.088032
O 5.033385 -0.926567 9.168970
O 0.853961 1.927943 4.040469
O 2.465159 2.562000 6.216533
O 0.837591 0.329619 6.114219
O 1.730635 0.681060 0.985708
O 3.405818 1.340297 9.271284
O 1.714266 3.581981 9.168970
O 4.298862 1.691738 4.142793
O 2.671295 -0.540644 4.040469
O 4.282492 0.093413 6.216533
O 3.422188 -1.560624 1.088032
