24

Co 2.175566 2.423280 4.454012
Co 3.927782 2.307202 1.697042
Co 4.147134 -0.290664 8.597915
Co 4.941141 0.924721 6.256415
Co 4.947490 -1.605251 6.272784
Te 0.963837 3.793704 1.825094
Te 0.963897 1.238828 1.845287
Te 1.949240 -0.137488 6.318524
O 0.955398 3.828504 5.365305
O 0.144904 2.570317 3.005094
O 1.821536 2.459564 0.689491
O 0.059397 -0.006572 2.902065
O 5.934215 2.174375 7.150282
O 0.971562 1.218532 5.383415
O 2.761085 3.551362 2.883569
O 2.757452 1.208650 2.908745
O 1.946012 -0.134896 0.804619
O 4.005356 2.310476 5.339317
O 3.194345 0.877993 7.463558
O 3.203392 -1.327805 7.483471
O 3.960884 -0.271457 5.300027
O 5.026458 0.925588 0.730603
O 5.685758 -0.396982 7.295946
O 5.025618 -1.627078 0.754470
