28

Li 1.911791 2.354348 8.205259
Li 5.710470 -2.854392 9.225811
Li 0.005550 0.003997 4.599351
Li 3.804228 -0.248126 3.588126
Ti 1.905201 2.315434 4.588470
Ti 3.810819 -0.287921 9.214495
Co 0.973410 3.618413 1.987734
Co 0.973364 1.198174 1.986609
Co 3.769898 2.220632 1.983909
Co 1.946122 -0.132377 6.609508
Co 4.742610 0.889960 6.613972
Co 4.742656 -1.530285 6.612847
O 0.930442 3.659863 5.546694
O 0.220518 2.472115 3.094296
O 1.896170 2.355736 1.017797
O 0.008437 4.940337 2.831234
O 5.707583 2.082331 7.457693
O 0.950020 1.175833 5.534873
O 2.735436 3.392756 3.093637
O 2.745502 1.202937 3.109875
O 1.884978 -0.132874 0.930476
O 3.831042 2.211921 5.548049
O 2.980584 0.900864 7.719472
O 2.970518 -1.287603 7.735708
O 3.819850 -0.248831 5.643824
O 4.785578 0.925646 0.929786
O 5.495502 -0.357413 7.720706
O 4.766000 -1.555755 0.917960
