24

Mn 2.101058 2.437723 4.711688
Mn 4.165465 -0.321347 9.039027
Co 4.007670 2.290607 1.884904
Co 4.880215 0.923110 6.586762
Co 4.879689 -1.666628 6.612057
Te 1.041060 3.804721 1.939199
Te 1.040301 1.224989 1.966862
Te 1.904178 -0.132829 6.622867
O 0.904127 3.877687 5.598966
O 0.231678 2.579271 3.138848
O 1.868484 2.450640 0.807817
O 0.134045 -0.014658 3.021419
O 5.876566 2.153788 7.533667
O 0.890324 1.178602 5.619178
O 2.845704 3.573362 3.000565
O 2.845065 1.191103 3.027022
O 2.010934 -0.157612 0.887964
O 4.096999 2.285383 5.565398
O 3.056603 0.942211 7.695657
O 3.079803 -1.380109 7.745877
O 3.925275 -0.301204 5.622110
O 5.144593 0.913710 0.922628
O 5.654052 -0.421616 7.645098
O 5.152335 -1.714476 0.959927
