20

Li 1.602866 1.407265 4.917578
Li 0.702181 2.663605 7.071311
Li 0.802159 3.642484 4.667876
Li 1.597758 2.953117 0.397410
Li 3.535668 4.645161 5.103604
Li 4.331267 3.955794 9.374071
Li 4.431245 4.934673 2.365117
Li 3.530560 6.191013 0.211383
V 1.228080 5.019191 2.051684
V 3.905346 2.579087 6.757878
O 0.865147 1.425233 1.371874
O 0.373765 0.951231 6.595562
O 2.488767 3.084286 5.768768
O 3.246589 2.570550 8.423852
O 1.886837 5.027728 3.717658
O 2.644659 4.513992 1.062574
O 4.759662 6.647047 1.889368
O 4.268280 6.173045 6.078069
F 0.098978 2.124109 4.024031
F 5.034449 5.474169 8.730226
