23

Mn 0.000000 0.000000 0.000000
Mn 3.035461 4.550482 -0.725192
Mn 4.463667 3.124885 1.998688
Mn 3.235722 0.846946 0.981900
Mn 4.663929 -0.578651 3.705780
Si 1.721422 5.532950 1.740427
Si 1.639562 2.113966 3.526651
Si 6.059828 1.857865 -0.546063
Si 5.977968 -1.561119 1.240161
O 2.654603 5.878393 3.015307
O 1.788838 3.491044 3.836080
O 0.081352 1.988517 2.634162
O 2.660309 4.386434 1.156993
O 1.471792 1.179912 4.858671
O 3.138572 1.639441 2.722141
O 1.641533 -0.626996 1.226554
O 6.057857 4.598827 1.754034
O 4.560818 2.332390 0.258447
O 6.227598 2.791919 -1.878083
O 5.039081 -0.414603 1.823595
O 7.618038 1.983314 0.346426
O 5.910552 0.480787 -0.855492
O 5.044787 -1.906562 -0.034719
