53

Li 5.272735 1.444854 1.310249
Li 3.466763 -0.780180 4.748862
Li 2.014187 2.481553 7.869046
Li 2.367529 2.916883 10.917863
Li 3.818956 -0.346250 7.787887
Li 0.556903 0.686125 14.316382
Li 0.905526 1.115642 17.324652
Mn 2.177045 2.682216 -0.102881
Mn 2.177045 0.192034 1.557196
Mn 0.744230 3.392483 4.582755
Mn 2.919672 -1.454187 0.028078
Mn 3.602809 1.963195 4.582793
Mn 5.134485 -1.286674 1.557227
Mn 0.744195 0.916861 6.233174
Mn 5.832729 2.134767 6.142377
Mn 2.230340 0.171438 11.069677
Mn 5.088184 1.217500 9.419677
Mn 0.687972 3.422860 14.104125
Mn 3.661650 1.936022 14.104125
Mn 5.088189 -1.257485 11.069620
Mn 3.661662 -0.540047 15.754828
O 1.351004 3.866035 -1.762396
O 3.893144 2.594966 -1.762397
O 0.392854 2.873873 1.284813
O 1.112236 1.370321 0.086071
O 3.152437 1.494083 1.284813
O 0.392795 0.483954 2.878086
O 2.524024 3.109681 3.271252
O 3.893139 -0.254855 0.137459
O 0.985150 4.032752 7.725797
O 2.523966 0.720429 4.864081
O 1.805412 2.224334 6.067941
O 3.265443 -1.028209 3.011848
O 5.485826 1.707375 3.148742
O 4.847275 0.920657 6.046711
O 1.592507 -0.270657 7.925834
O 0.235734 2.951170 10.788018
O 4.240286 2.405185 7.725798
O 5.597986 -0.816590 4.864088
O 0.985138 1.213722 9.605165
O 0.346734 0.427199 12.503146
O 2.569123 3.165246 12.657303
O 4.027271 -0.089609 9.585004
O 4.847258 -1.898031 7.925853
O 3.308098 1.414969 10.788032
O 3.308063 -0.975709 12.381822
O 1.930234 2.378126 15.547073
O 5.442873 1.654461 12.774238
O 2.675100 0.641376 14.372211
O 5.442826 -0.742491 14.372195
O 4.718148 0.761567 15.547142
O 1.930205 -0.441987 17.427150
O 4.506684 -1.730229 17.427153
