26

K 1.349116 3.428708 7.288842
K 1.349121 0.154889 7.288846
K 4.001976 3.738637 2.800507
K 4.001949 7.012399 2.800463
Li 1.604716 5.375543 9.801656
Li 3.746751 1.791752 0.287873
Mn 4.102419 5.375456 6.386105
Mn 1.248608 1.791925 3.702954
P 3.851453 1.791808 5.863027
P 1.499591 5.375551 4.226410
C 3.949863 5.375451 9.309207
C 1.401978 1.791758 0.780264
O 1.869370 1.791587 9.504410
O 5.217847 5.375367 9.053883
O 3.061220 5.375478 8.317782
O 4.138234 0.513954 6.705366
O 4.138116 3.069718 6.705283
O 0.692171 5.375499 5.550451
O 2.332920 1.791759 5.449058
O 3.018118 5.375636 4.639902
O 4.659151 1.791782 4.538746
O 1.212821 4.097613 3.383823
O 1.212666 6.653463 3.383808
O 2.290423 1.791824 1.772139
O 0.133213 1.791863 1.036745
O 3.481460 5.375479 0.585953
