26

Sr 3.410884 0.062024 0.000000
Sr 1.934374 3.663948 5.443366
La 4.629309 2.369870 2.741693
La 1.953131 3.699462 0.000000
La 0.715949 1.356102 2.701673
La 3.392128 0.026510 5.443366
La 4.629309 2.369870 8.145039
La 0.715949 1.356102 8.185059
Mn 0.003453 0.006540 0.000000
Mn 5.341806 3.719432 5.443366
O 4.022975 4.359088 1.331491
O 4.496383 2.118092 0.000000
O 3.690163 0.591013 2.924394
O 0.848538 1.607223 0.000000
O 1.298871 5.721140 1.331491
O 4.046387 -1.995168 4.111875
O 1.322283 -0.633116 4.111875
O 1.655095 3.134959 2.518972
O 4.496720 2.118749 5.443366
O 4.046387 -1.995168 6.774857
O 3.690163 0.591013 7.962338
O 0.848875 1.607880 5.443366
O 1.322283 -0.633116 6.774857
O 4.022975 4.359088 9.555241
O 1.655095 3.134959 8.367760
O 1.298871 5.721140 9.555241
