26

Na 2.208467 0.001891 1.359161
Na 6.390378 3.308197 3.978781
Li 0.756999 1.682083 3.812634
Li 2.358319 3.168294 1.300940
Li 6.240526 6.474600 4.037002
Li 7.841846 4.988389 1.525308
Fe 2.958871 4.924233 4.060289
Fe 5.639974 1.617928 1.277653
P 3.509980 1.642520 3.698542
P 5.088865 4.948826 1.639400
C 0.360163 5.009152 3.637935
C 8.238683 1.702847 1.700007
O 0.870960 1.848146 1.756039
O 0.703248 4.999267 4.880620
O 1.283507 4.862895 2.703477
O 2.599508 0.402278 4.000527
O 2.675556 2.848786 4.259314
O 3.708751 1.796838 2.155586
O 3.703247 4.836140 0.998743
O 4.895598 1.529834 4.339199
O 4.890095 5.103144 3.182356
O 5.999337 3.708584 1.337414
O 5.923289 6.155092 1.078628
O 7.315339 1.556589 2.634465
O 7.895597 1.692961 0.457322
O 7.727885 5.154451 3.581903
