33

Li 2.174264 1.935019 3.732869
Li 2.321652 -0.221323 5.570661
Li 4.605754 5.977687 1.881445
Li 4.770001 3.910446 3.643985
Li 6.469780 3.670172 5.428766
Li 6.634034 1.602929 -0.509705
Ni 6.675023 5.850235 7.414591
Ni 4.524099 3.967127 -0.116487
Ni 4.564764 1.730382 1.658157
Ni 4.514711 -0.434633 3.330587
Ni 6.715688 3.613490 1.488227
Ni 6.725076 1.422470 3.310291
Sn 2.247955 4.153238 5.867701
Sn 2.285012 1.992844 -0.029849
Sn 2.210904 6.313626 4.064239
O 0.010480 6.389590 4.081002
O 0.070716 4.115217 6.154231
O 0.105366 2.055463 7.784397
O 2.301656 6.313872 5.953155
O 2.457372 4.138715 7.714226
O 4.529433 5.914911 7.563362
O 2.038537 4.167761 4.021176
O 2.194253 1.992598 5.782246
O 4.425200 4.191259 5.581161
O 2.169645 1.877816 1.840280
O 4.763688 3.762544 1.772986
O 4.577254 1.546227 3.330469
O 2.326271 -0.164127 -0.237752
O 4.485436 1.916879 -0.046605
O 4.390550 -0.341767 1.519125
O 6.476092 3.818080 -0.401241
O 6.710354 1.665713 1.509381
O 6.662533 -0.558390 3.310401
