18

Mn 0.838541 3.329757 4.812098
Mn 3.354936 4.587421 9.623966
Mn 1.677239 2.293994 -0.000230
Mn 4.193633 3.551658 4.811638
Mn 2.516087 1.258044 4.811868
Co 0.000000 0.000000 0.000000
O 0.001822 2.934088 0.948525
O 1.649104 3.757729 8.675675
O 0.839211 1.875185 3.845796
O 2.517144 4.168320 3.845566
O 2.515030 2.713095 5.778170
O 0.838707 4.784681 5.777014
O 4.192964 5.006230 5.777940
O 3.383070 3.123686 0.948061
O 1.648797 5.189726 0.945393
O 5.030353 3.947327 8.675211
O 3.383377 1.691689 8.678343
O 4.193467 2.096734 3.846722
