22

Na 2.214368 3.051484 1.295205
Na 6.997695 6.275531 4.181926
Fe 3.278426 4.936520 4.236052
Fe 5.933637 1.712472 1.241079
P 3.957281 1.654729 3.902597
P 5.254782 4.878777 1.574533
C 0.757020 4.797589 3.845665
C 8.455043 1.573542 1.631466
O 0.477120 1.575128 1.641973
O 1.257907 4.823091 5.032109
O 1.649466 4.781888 2.883697
O 3.086161 0.418256 4.199696
O 3.115483 2.898915 4.276434
O 3.935098 4.807667 0.778438
O 4.330646 1.705405 2.378292
O 4.881417 4.929453 3.098839
O 5.276964 1.583620 4.698693
O 6.096580 6.122963 1.200697
O 6.125902 3.642303 1.277435
O 7.562597 1.557840 2.593433
O 7.954156 1.599044 0.445022
O 8.734942 4.799175 3.835158
