39

Ba 1.978413 2.437583 2.542665
Ba 1.978324 2.437551 14.526046
Ba 5.934872 2.172626 18.957109
Ba 1.978443 2.437646 7.038955
Ba 5.934878 2.172556 9.699432
Ba 3.957397 -0.263946 4.791981
Ba 3.956518 -0.264761 16.436428
Ba 3.956566 -0.264949 12.164767
Nb 1.978194 2.437590 10.835951
Nb 0.000166 0.000174 3.514089
Nb 0.000184 0.000021 6.119450
Nb 5.934872 2.172667 13.412185
Nb 1.978259 2.437465 17.957450
Nb 3.956667 -0.264907 1.143699
Nb 3.956631 -0.264884 8.441955
O 0.956692 3.833338 4.816107
O 5.905880 -0.395492 0.146041
O 0.007899 2.569417 9.593744
O 1.008967 3.761760 11.934896
O 1.047331 3.709144 16.988173
O 1.008819 1.243177 11.935164
O 1.047390 1.290337 16.988320
O 0.956740 1.178783 4.816343
O 1.941718 -0.129783 14.257393
O 3.917075 2.307725 11.934984
O 3.840276 2.312795 16.988241
O 2.982057 1.066312 0.146089
O 2.963487 1.091701 9.593792
O 2.015685 -0.134902 2.442073
O 2.009536 -0.134546 7.248428
O 4.021945 2.300309 4.816136
O 4.930214 0.934698 7.248208
O 2.982015 -1.465801 0.146299
O 2.963546 3.651376 9.593600
O 4.927347 0.930955 2.441816
O 4.964138 0.976307 14.257208
O 4.927235 -1.590627 2.442141
O 4.930214 -1.594702 7.248284
O 4.963824 -1.641096 14.257442
