36

Ti 7.317748 9.968184 11.711982
Fe 1.234512 1.681643 1.975823
Fe 3.044058 4.146594 4.871984
Fe 5.504356 7.497994 8.809666
Cu 0.006546 0.008917 0.010477
Cu 4.278048 5.827527 6.846973
P 6.404023 6.530512 4.573326
P 0.381052 5.765776 5.221181
P 3.886562 2.240539 7.285340
P 2.143408 5.097677 9.102818
P 4.643581 9.395308 6.386606
P 8.167627 5.878086 8.445289
O 0.965274 2.806065 4.804169
O 2.677073 5.087221 3.351073
O 0.514094 7.039412 4.310513
O 4.330734 2.967586 4.605592
O 8.504232 10.251735 10.520532
O 2.053104 5.381051 5.594931
O 2.216142 1.536131 7.644097
O 3.825502 3.667106 6.596503
O 1.582107 3.660708 8.720080
O 5.019788 5.797556 5.251335
O 0.741303 5.881941 8.779074
O 3.310433 9.032282 5.366302
O 5.280591 10.001350 10.769564
O 7.791096 5.756540 4.884677
O 3.519978 5.894688 8.427551
O 6.974392 8.024968 11.934818
O 4.782494 7.990208 7.101848
O 6.334289 10.098207 6.021670
O 6.476330 6.246683 8.123925
O 8.502429 5.553540 7.352130
O 4.225619 8.686819 9.063406
O 8.021416 4.584888 9.361865
O 5.848849 6.553238 10.327398
O 7.589934 8.822266 8.880895
