56

Li 0.002132 4.067631 4.048694
Li 0.987379 7.067464 3.067936
Li 2.014352 6.078389 6.101115
Li 2.021645 2.083954 2.026196
Li 3.048069 1.101800 7.150963
Li 4.034422 4.094259 8.123027
Li 5.061767 5.081219 5.097362
Li 6.081206 6.088181 2.051502
Li 6.033471 2.126166 6.128913
Li 7.050633 3.133926 1.021841
Co 1.029130 5.060660 0.977272
Co 0.982348 3.109685 7.121682
Co 0.961344 1.016690 5.063553
Co 3.075792 7.147727 0.982619
Co 3.055724 5.054086 3.043426
Co 3.009985 3.102362 5.053190
Co 3.971885 8.140424 4.084242
Co 5.039567 7.196391 7.184892
Co 5.058157 1.018283 1.046269
Co 5.022738 3.032224 3.041589
Co 7.091366 5.184698 7.115125
Co 7.055575 7.198124 5.118565
Co 7.073681 1.020468 3.112012
Co 0.065791 0.025021 0.011303
O 0.841947 7.356441 5.137497
O 0.814199 1.079299 3.243512
O 0.907246 4.990628 7.202849
O 1.076331 3.252471 0.799597
O 0.964751 1.170225 7.027132
O 1.112663 2.911057 5.205035
O 1.147783 7.038273 0.972721
O 1.177760 5.067435 2.856290
O 2.862186 3.094615 6.935187
O 2.889805 1.126366 5.053420
O 2.925539 5.253334 1.125902
O 3.072279 6.994199 2.945282
O 2.959198 4.909559 4.874534
O 3.131513 3.172098 3.126467
O 3.223259 7.083866 7.314999
O 3.194825 0.806940 1.062065
O 4.880568 4.901687 3.011753
O 4.811240 3.045644 4.921690
O 4.965587 7.248295 0.917165
O 5.076909 0.871830 7.332510
O 4.984944 2.825084 1.178159
O 5.138573 1.083704 2.986936
O 5.284668 5.313532 7.163487
O 5.162994 7.229080 5.252200
O 6.949309 0.988791 1.177840
O 6.829662 2.901056 3.088218
O 6.975232 7.130303 7.061093
O 7.126470 5.387719 5.253562
O 7.037187 7.343220 3.252967
O 7.147677 0.966913 4.996348
O 7.303857 5.169584 0.844418
O 7.235022 3.311379 7.087704
