14

Li 2.708841 5.109727 2.709057
La 0.751311 1.417275 2.708946
La 3.451385 0.045531 0.000033
La 1.966339 3.709651 0.000068
La 4.666289 2.337789 2.709102
Mn 0.000033 -0.000016 0.000000
O 1.344181 -0.672035 1.336456
O 1.344186 -0.672031 4.081625
O 4.073527 4.427160 1.336471
O 4.073571 4.427139 4.081618
O 0.977868 1.846985 5.417994
O 3.694759 0.506135 2.709000
O 1.722916 3.248988 2.709036
O 4.439867 1.908127 5.418043
