32

V 3.816920 4.986997 0.729592
V 3.903593 2.595912 8.846903
V 2.622801 2.530752 3.203611
V 2.622801 4.931061 12.371498
V 1.428682 4.875124 6.776746
V 1.342009 2.465591 14.796977
V 0.068093 4.801208 1.084912
V 5.177509 5.060913 6.421426
O 2.268571 4.922423 0.468826
O 2.977031 4.939698 7.037512
F 4.855990 6.476335 -0.111502
F 5.128940 4.126196 -1.268563
F 5.100855 6.508599 7.914819
F 2.808432 5.890662 2.819055
F 4.884096 2.642269 2.515811
F 4.834981 4.096817 7.948792
F 4.874575 5.039054 11.575746
F 3.075816 3.513058 1.641269
F 2.984706 5.893586 10.828050
F 2.437170 3.971460 4.687283
F 2.721109 3.482392 10.885946
F 2.169786 1.548446 4.765952
F 2.186849 2.513698 8.402963
F 2.260896 3.968535 13.914947
F 3.058752 2.547805 15.240918
F 0.389612 3.385786 7.617840
F 0.361506 2.419234 3.891411
F 0.371027 4.823067 13.167251
F 2.524493 1.579111 12.757934
F 0.144747 3.353523 16.828178
F 0.116662 0.935307 7.675785
F 0.410620 0.964687 15.695089
