42

Li 5.090285 9.032763 11.017782
Li 2.671971 4.702361 10.221848
Fe 5.081465 6.079620 9.299727
Fe 3.806130 0.719883 11.173739
Fe 2.714736 7.935116 11.585017
Fe 4.029943 4.098952 5.318951
Fe 1.216815 5.302471 12.050567
Fe 2.500229 1.483515 5.824637
Fe 0.124518 3.174469 7.905224
Fe 1.370400 8.622512 6.181526
B 5.093251 2.942236 7.852202
B 3.889721 3.776411 12.610141
B 2.752931 1.853557 8.623980
B 3.953876 1.077712 3.863509
B 2.485220 7.630999 8.750184
B 1.183142 8.281685 13.506613
B 0.109807 6.259577 9.406196
B 1.438607 5.633720 4.708564
O 5.087935 8.633944 15.580956
O 4.580044 2.772544 12.053066
O 4.549453 4.452324 13.890312
O 4.702562 7.641109 12.159373
O 4.849620 5.298796 11.012220
O 3.922527 1.651611 9.637779
O 3.930710 3.161954 6.840544
O 2.633484 4.121627 11.908556
O 1.883936 7.303243 12.947409
O 2.946764 8.717448 9.894166
O 3.149589 6.451869 8.653943
O 1.884641 9.077861 14.750535
O 3.272133 0.370948 2.591367
O 1.995874 2.975576 8.834933
O 2.410491 0.929630 7.454611
O 3.235886 2.062014 4.417033
O 2.752931 5.411290 5.343357
O 1.282615 6.045959 10.420568
O 1.270954 7.842540 7.772643
O 0.231908 3.732098 6.299764
O 0.601974 1.641152 4.938328
O 0.733693 4.833821 3.457008
O 0.741198 6.613239 5.258652
O 0.015552 0.657824 1.812682
