36

Li 8.290574 8.712464 3.829919
Li 2.890762 1.445381 3.942071
Li 5.308145 5.209776 3.887059
Co 8.297431 11.233924 1.990263
Co 8.253476 4.164411 5.726716
Co 2.660847 3.805603 6.329658
Co 2.798447 3.707094 2.001998
Co 5.549298 7.422350 1.387320
Co 5.491670 7.560846 5.714980
C 0.001953 2.410883 2.258416
C 2.795887 6.096431 2.188639
C 5.509400 9.856490 2.108758
C 2.814240 6.120096 5.458562
C 8.278878 6.563833 5.528339
C 5.484787 2.763484 5.608220
O 0.206267 0.103133 3.942071
O 0.648658 1.630416 6.158084
O 1.419098 2.417666 2.708782
O 0.695838 3.436750 5.349647
O 2.910146 3.829521 0.151013
O 1.984077 5.188313 2.660646
O 3.986956 2.618204 5.499649
O 1.458789 5.995846 5.971926
O 2.172822 6.903205 1.558895
O 3.628759 5.224274 5.380744
O 4.912402 3.653058 2.751410
O 6.138989 3.666627 6.184766
O 3.412426 7.120978 5.008196
O 4.300400 6.184251 2.367332
O 5.681054 7.588960 7.565965
O 6.881002 6.367107 5.056332
O 4.716001 8.856156 2.217329
O 7.604577 5.658718 1.745052
O 7.607994 7.516984 2.336234
O 6.309115 9.080581 4.965568
O 6.835825 9.943661 1.532212
