36

Mn 0.118060 7.550618 9.617914
Mn 4.358265 5.940416 6.977551
Fe 0.571860 5.138227 6.477122
Fe 3.810005 8.332795 10.105859
Fe 8.112767 6.735850 7.473770
P 2.118357 2.966812 5.578317
P 2.118357 8.252242 5.253092
P 2.118357 5.178550 9.213136
P 6.509429 6.737742 4.722298
P 6.509429 3.582201 8.655949
P 6.509429 8.868550 8.407340
W 4.942033 3.555557 3.853933
O 0.607411 1.151168 2.822040
O 0.607411 4.085207 2.362064
O 0.607411 2.675300 4.659055
O 2.054141 1.683536 6.464683
O 3.724500 3.256091 5.075747
O 2.336410 4.281585 6.135273
O 2.054141 8.110820 4.004847
O 2.336410 6.917821 6.018269
O 4.950102 7.089401 4.044388
O 2.336410 5.336796 7.977468
O 6.598964 5.279208 4.423241
O 4.950102 2.510564 8.258863
O 3.724500 9.383630 5.680750
O 2.054141 6.562426 9.549543
O 6.388980 6.497891 5.984178
O 3.724500 4.778717 9.924873
O 6.388980 4.987547 7.969471
O 6.598964 3.793314 9.943748
O 6.388980 7.626492 7.784170
O 4.950102 8.597450 8.864072
O 6.598964 10.172870 7.454088
O 8.075669 9.282930 9.269931
O 8.075669 7.735687 11.541194
O 8.075669 10.690949 11.197771
