28

Li 1.974176 2.432486 8.379804
Li 0.000077 0.000059 9.296167
Li 5.922653 -2.961116 4.623816
Li 3.948554 -0.264295 3.707467
V 1.974247 2.432456 4.614126
V 3.948483 -0.264316 9.286183
Cr 1.015393 3.742255 2.006716
Cr 1.015411 1.250946 2.006596
Cr 3.892169 2.303975 2.006697
Cr 2.030561 -0.135922 6.678767
Cr 4.907337 0.917063 6.678765
Cr 4.907319 -1.574240 6.678646
O 1.034043 3.716676 5.530924
O 0.269443 2.546504 3.232358
O 1.974401 2.432492 0.971868
O 0.000000 5.129085 2.869444
O 0.000000 5.129085 7.541640
O 1.034002 1.274092 5.530751
O 2.826670 3.482691 3.232397
O 2.826599 1.267926 3.232301
O 2.068099 -0.138400 0.858406
O 3.854631 2.306530 5.530729
O 3.096060 0.900085 7.904460
O 3.096131 -1.314694 7.904363
O 3.948329 -0.264264 5.643925
O 4.888686 0.893987 0.858581
O 5.653287 -0.378590 7.904402
O 4.888728 -1.548608 0.858407
