36

Fe 0.145703 7.523772 9.550745
Fe 0.581262 5.123577 6.436519
Fe 4.272680 5.944992 6.965342
Fe 3.712001 8.317345 10.061643
Fe 7.938449 6.760697 7.490486
Sb 4.908954 3.589463 3.879873
P 2.103639 2.991653 5.563217
P 2.103639 8.232636 5.226156
P 2.103639 5.162720 9.174459
P 6.404721 6.740638 4.734980
P 6.404721 3.624762 8.693847
P 6.404721 8.892835 8.383479
O 0.603226 1.148738 2.860161
O 0.603226 4.027026 2.318597
O 0.603226 2.718273 4.610360
O 1.979625 1.697547 6.449542
O 3.748985 3.327618 5.114717
O 2.336983 4.278787 6.153021
O 1.979625 8.076347 3.969468
O 2.336983 6.888173 5.970011
O 4.838949 7.050761 4.009243
O 2.336983 5.375797 7.941056
O 6.605634 5.313026 4.447021
O 4.838949 2.517740 8.315928
O 3.748985 9.342518 5.676679
O 1.979625 6.530313 9.491505
O 6.218811 6.469393 5.984605
O 3.748985 4.815234 9.879549
O 6.218811 5.013547 8.000852
O 6.605634 3.843988 10.006118
O 6.218811 7.651198 7.746961
O 4.838949 8.644486 8.814210
O 6.605634 10.235350 7.445523
O 7.981133 9.266954 9.270201
O 7.981133 7.782716 11.590802
O 7.981133 10.752271 11.158679
