20

Li 0.158967 5.377328 2.016315
La 2.723066 2.934883 1.977985
La 2.774183 2.595990 5.855295
La 5.474877 5.359679 5.830365
Ti 5.520350 2.731184 0.039464
Ti 5.519152 2.721727 3.829707
Ti 2.766656 0.006624 0.099383
Cr 2.750751 0.000845 3.876997
O 5.141740 2.601516 1.938576
O 1.204867 4.336159 0.352391
O 1.156180 4.341578 3.521829
O 1.590357 1.597158 0.204529
O 1.585304 1.627515 3.699775
O 3.230456 5.509906 1.919237
O 2.333682 -0.004552 5.872210
O 3.941601 3.943949 4.163554
O 3.957534 3.970170 7.545443
O 4.282928 1.251068 4.293904
O 4.266708 1.246082 7.424428
O 0.368719 2.903279 5.864652
