20

Li 1.170175 4.437983 0.102207
Li 2.174830 1.037106 4.392183
Li 2.591151 1.945854 1.469917
Li 1.513613 0.189952 -0.049464
Li 3.068136 2.967791 -1.357063
Li 4.041401 -0.452495 2.793740
Cu 0.035745 2.647095 -1.239776
Cu 3.674678 3.835881 3.060838
Sb 0.554758 3.573393 3.139634
Sb 4.620844 0.417709 -0.155211
O 0.258693 0.134189 5.791920
O 1.785550 3.176014 4.478854
O 0.752371 1.613633 2.869061
O 1.153460 2.400523 0.100332
O 2.372818 4.125930 1.813050
O 2.914560 -0.131942 1.264382
O 4.115673 1.522010 2.907193
O 4.506597 2.401311 0.082334
O 3.481950 0.940646 -1.519179
O 4.868232 3.847129 -2.839102
