84

Li 10.408967 3.047569 9.527411
Li 10.430357 0.008862 14.274976
Li 10.430357 3.040737 14.274976
Li 10.439872 0.002025 4.742089
Li 10.439872 3.047575 4.742089
Li 10.408967 0.002031 9.527411
Li 5.239227 0.002915 7.150525
Li 5.239227 3.046684 7.150525
Li 5.232396 0.002940 2.374349
Li 5.232396 3.046660 2.374349
Li 5.254570 6.094820 11.908006
Li 5.254570 3.053979 11.908006
Mn 2.278933 4.574399 7.047980
Mn 2.280228 4.574399 11.810775
Mn 2.940356 1.524800 9.434752
Mn 7.511339 4.574399 0.086820
Fe 2.277220 4.574399 2.263708
Fe 2.943562 1.524800 14.198887
Fe 2.944304 1.524800 4.644185
Fe 7.510420 4.574399 4.865919
Co 7.556857 4.574399 9.582259
Co 8.122744 1.524800 12.005731
Co 8.128624 1.524800 7.202638
Co 8.163822 1.524800 2.459247
P 0.953589 1.524800 11.534639
P 0.982761 1.524800 1.997284
P 0.955971 1.524800 6.741958
P 4.246241 4.574399 4.364914
P 4.289617 4.574399 9.139115
P 4.233446 4.574399 13.921720
P 6.218082 1.524800 5.139786
P 6.208567 1.524800 0.385053
P 6.243703 1.524800 9.924746
P 9.445413 4.574399 12.271101
P 9.455482 4.574399 2.758202
P 9.427929 4.574399 7.536391
O 0.449524 4.574399 3.380977
O 0.424353 4.574399 8.147125
O 0.432134 4.574399 12.909189
O 1.004977 1.524800 8.276187
O 1.013928 1.524800 13.075123
O 1.018471 1.524800 3.533820
O 1.719981 0.289773 1.355056
O 1.719981 2.759827 1.355056
O 1.690851 0.297482 6.092852
O 1.690851 2.752117 6.092852
O 1.685806 0.296653 10.882606
O 1.685806 2.752947 10.882606
O 3.553149 3.346478 8.496855
O 3.553149 5.802321 8.496855
O 3.500916 3.337799 3.737156
O 3.500916 5.811000 3.737156
O 3.494608 3.337049 13.294448
O 3.494608 5.811750 13.294448
O 4.224077 4.574399 5.899969
O 4.216348 4.574399 1.153030
O 4.236841 4.574399 10.674771
O 4.780585 1.524800 5.738062
O 4.760699 1.524800 0.957467
O 4.801098 1.524800 10.519285
O 5.681294 4.574399 3.763983
O 5.662640 4.574399 13.314621
O 5.735908 4.574399 8.557603
O 6.254774 1.524800 3.603896
O 6.259474 1.524800 13.157026
O 6.266816 1.524800 8.380259
O 6.940846 0.303533 1.043793
O 6.963845 0.294524 5.783226
O 6.973434 0.289029 10.566979
O 6.973434 2.760571 10.566979
O 6.940846 2.746067 1.043793
O 6.963845 2.755075 5.783226
O 8.717708 3.329553 12.894991
O 8.717708 5.819246 12.894991
O 8.717040 3.330498 3.388300
O 8.688370 3.336744 8.182217
O 8.717040 5.818300 3.388300
O 8.688370 5.812055 8.182217
O 9.420816 4.574399 10.732550
O 9.416085 4.574399 5.995764
O 9.441987 4.574399 1.222015
O 9.953719 1.524800 10.943045
O 9.980332 1.524800 1.396824
O 9.945719 1.524800 6.155797
