24

Li 0.000000 0.000000 0.000000
Li 5.156609 2.383850 -0.256507
Mn 0.000000 2.383850 2.796573
Mn 2.567568 4.680047 3.980631
Mn 2.589041 2.296196 1.356008
Mn 5.156609 0.000000 2.540066
Mn 7.724178 2.471505 3.724124
Mn 7.745650 0.087654 1.099501
O 1.762931 3.214980 2.740698
O 3.393678 0.831129 2.595941
O 6.919540 3.936571 2.484192
O 8.550287 1.552721 2.339434
F 0.820210 0.910721 3.960112
F 0.784475 1.414939 1.173823
F 1.862670 3.784000 -0.070814
F 3.293939 1.400150 5.407453
F 4.372134 3.798790 4.162816
F 4.336399 3.294572 1.376528
F 5.976819 1.473129 3.703605
F 5.941084 0.968911 0.917317
F 7.019279 3.367551 -0.327321
F 8.450548 0.983701 5.150947
F 9.528743 3.352762 3.906309
F 9.493008 3.856979 1.120021
