28

Li 0.000000 0.000000 0.000000
Li 4.006553 8.618336 1.847274
La 1.700980 5.655351 2.057643
La 0.964719 8.934063 1.633833
La 2.305574 2.962985 5.021698
La 0.365462 11.602651 3.904917
La 3.041834 12.914390 1.291954
La 4.971273 4.322281 2.402593
La 4.377352 6.967090 4.676748
La 3.641091 10.245802 4.252938
Co 2.671035 1.335518 2.616034
Co 1.335518 7.282818 4.463307
O 0.027619 6.628868 5.744275
O 1.363136 0.681568 1.335067
O 3.978935 1.989467 1.335067
O 0.482945 11.079492 1.356511
O 2.190201 3.476773 2.339254
O 0.027619 6.628868 3.182340
O 1.363136 0.681568 3.897001
O 2.643417 7.936767 5.744275
O 4.489498 6.467710 2.125271
O 3.978935 1.989467 3.897001
O 1.816352 5.141562 4.740088
O 2.643417 7.936767 3.182340
O 3.523609 10.768961 1.569277
O 0.854683 9.424073 4.186527
O 3.151870 12.424380 3.971328
O 4.859126 4.821661 4.954071
