16

Li 0.000000 2.953670 3.425832
Li 5.297204 4.397294 8.297630
Li 5.297204 7.350965 10.432336
Co 0.000000 0.000000 0.000000
Co 0.000000 2.953670 2.134706
Co 5.297204 4.397294 7.006505
Co 0.000000 0.000000 1.291126
Te 5.297204 7.350965 9.141211
O 10.555144 14.647444 18.883351
O 0.264669 3.201259 3.106071
O 5.347209 4.586382 7.780445
O 0.039263 0.054485 1.981322
O 5.496707 7.627817 10.082966
O 10.329738 11.500670 17.758602
O 5.247198 10.115547 13.084228
O 5.097700 7.074112 10.781707
