30

Li 0.838825 0.810441 1.739702
Li 0.569494 2.943684 3.032605
Li 1.910036 1.751289 7.245249
Li 1.640566 3.884390 5.951141
Li 3.174990 7.260694 1.295024
Li 4.264974 6.823898 5.507492
Mn 2.477511 0.933617 4.242247
Mn 0.002356 3.761104 0.029467
P 0.666316 5.711216 3.011783
P 1.813552 6.533520 7.222719
P 3.111414 2.821172 1.200890
P 4.327811 3.713417 5.412448
H 2.713026 4.839230 4.216691
H 4.727215 9.245276 0.006059
O 0.375974 1.474231 4.375889
O 0.043449 5.028588 1.726018
O 0.811085 5.256132 6.867483
O 1.436700 4.685876 3.760374
O 2.103462 3.221221 0.164061
O 2.320164 2.258273 2.456898
O 1.042994 7.557694 7.972272
O 1.668639 6.987328 2.655827
O 3.089878 2.636431 5.711589
O 3.752023 1.594470 0.607710
O 2.436186 7.214514 5.940266
O 2.968793 6.180935 8.138331
O 3.687480 4.941121 4.820121
O 4.349813 3.899403 1.499756
O 0.159708 2.437257 6.668594
O 4.471484 7.903071 3.926736
