28

Li 1.984001 2.443808 8.744856
Li 5.945835 2.176925 9.782512
Li 5.944693 2.177568 4.876531
Li 3.967693 -0.264496 3.840720
Ti 1.002416 3.785767 2.101310
Ti 1.002595 1.233575 2.108919
Ti 3.947986 2.313230 2.095340
Ti 2.001061 -0.133058 7.013076
Ti 4.947743 0.945447 7.005032
Ti 4.948029 -1.605676 7.012412
V 1.981913 2.442055 4.754872
V 3.963535 -0.264710 9.662817
O 0.936983 3.866664 5.947377
O 0.205895 2.561689 3.224840
O 1.980759 2.442662 1.031044
O 0.005455 0.000684 3.093134
O 0.005818 0.001316 7.999339
O 0.937465 1.158820 5.954552
O 2.873729 3.535433 3.221360
O 2.874407 1.230718 3.224752
O 1.878249 -0.127194 1.049249
O 4.068038 2.303156 5.943605
O 3.081129 0.950645 8.130158
O 3.079404 -1.360451 8.134551
O 3.963101 -0.264931 5.939411
O 5.005634 1.020518 1.039568
O 5.740879 -0.381572 8.131534
O 5.004474 -1.690714 1.044664
