48

Na 2.301651 3.147448 6.498432
Na 2.147076 0.053957 1.359822
Na 2.152331 3.331309 1.292707
Na 6.714309 3.402896 9.363794
Na 6.713642 6.703603 9.357567
Na 6.674710 3.402013 4.003818
Na 6.689815 6.700161 3.950241
Na 8.288215 5.158167 6.619613
Mn 3.118642 5.083945 9.255369
Mn 3.126972 5.098665 4.156156
Mn 5.756747 1.674633 6.486099
Mn 5.746042 1.704629 1.291887
P 3.752847 1.696013 9.000519
P 3.721445 1.692488 3.760425
P 5.177744 5.032368 6.836484
P 5.116922 5.060945 1.640464
C 0.626390 5.016878 8.918819
C 0.627911 5.027199 3.780647
C 8.222104 1.704796 6.835915
C 8.231874 1.696647 1.627682
O 0.564688 1.756653 6.666526
O 0.589093 1.694976 1.434541
O 1.285232 5.088287 10.063547
O 1.303369 5.019930 4.920886
O 1.376122 4.932004 7.873625
O 1.358065 5.041554 2.722427
O 2.957523 0.433519 9.387741
O 2.931144 2.958889 9.342720
O 2.905166 0.418550 4.006191
O 2.917426 2.955894 4.109803
O 4.074106 1.727931 7.462021
O 3.841070 4.958977 6.088356
O 4.034133 1.743965 2.203347
O 3.750322 5.053113 0.909451
O 5.125706 1.705607 9.746182
O 4.880197 5.056501 8.396526
O 5.088925 1.671444 4.520900
O 4.853889 5.062931 3.212097
O 6.096756 3.816535 6.549419
O 6.030387 6.275995 6.484117
O 5.959945 3.812130 1.319307
O 5.943248 6.317055 1.298538
O 7.391190 1.664671 7.852667
O 7.432737 1.695166 2.656303
O 7.568899 1.669314 5.668264
O 7.567858 1.691215 0.476804
O 8.248278 5.053196 9.108647
O 8.249647 5.039267 4.070907
