20

Li 0.000000 0.000000 6.161895
Li 0.000000 2.520573 7.448731
Li 2.611954 -0.131819 2.611525
Li 2.611954 2.388754 1.634888
V 0.000000 0.000000 0.899468
Te 0.000000 2.520573 3.492351
Te 2.611954 -0.131819 8.087350
Te 2.611954 2.388754 5.256985
O 0.756427 1.279414 2.182918
O 0.764472 1.396704 4.914690
O 0.987977 0.979264 8.216843
O 1.728957 3.438184 3.635544
O 1.670167 3.981446 0.829298
O 1.675291 3.836602 6.782852
O 3.548616 0.940907 6.782852
O 3.553741 0.796063 0.829298
O 3.494951 1.339325 3.635544
O 4.235931 3.798244 8.216843
O 4.459436 3.380804 4.914690
O 4.467480 3.498094 2.182918
