38

Co 0.000000 4.596143 3.428369
Co 2.252503 0.105720 4.650317
Co 0.000000 0.000000 0.000000
Co 2.252503 4.490423 1.221948
Co 5.773547 4.701864 2.199428
Co 5.773547 9.086566 -1.228942
Se 1.343216 6.275059 5.470312
Se 1.343216 7.513370 2.041942
Se 3.222403 3.054468 3.846535
Se 4.803647 7.650611 3.003211
Se 3.222403 1.541675 0.418165
Se 4.803647 6.137818 -0.425159
Se 6.682834 1.678916 1.379434
Se 6.682834 2.917227 -2.048936
O 0.380146 1.163137 5.434128
O 1.282747 8.006546 5.885053
O 0.380146 3.433006 2.005759
O 1.652989 3.948216 4.259286
O 1.205601 8.134116 3.447378
O 1.282747 5.781884 2.456684
O 2.698222 1.484269 3.427119
O 1.652989 0.647927 0.830916
O 1.205601 5.654313 0.019009
O 4.299780 8.262983 4.437589
O 3.726270 3.666849 2.412156
O 2.698222 3.111874 -0.001251
O 5.327828 6.080412 3.422627
O 4.299780 5.525447 1.009220
O 3.726270 0.929294 -1.016214
O 6.820449 3.537973 3.402367
O 6.373061 8.544359 2.590460
O 5.327828 7.708017 -0.005743
O 6.743303 3.410403 0.964692
O 6.820449 1.058170 -0.026002
O 6.373061 5.244071 -0.837910
O 7.645904 5.759280 1.415617
O 6.743303 1.185741 -2.463677
O 7.645904 8.029150 -2.012752
