116

Li 0.000000 1.884059 14.791735
Li 2.050853 1.682566 17.359984
Li 0.000000 2.942815 4.930578
Li 3.324172 1.767905 12.357507
Li 2.050853 3.144308 7.498828
Li 5.262109 1.748019 15.236171
Li 3.324172 3.058969 2.496351
Li 6.400812 1.720071 9.980769
Li 5.262109 3.078855 5.375015
Li 8.606601 1.720071 13.145856
Li 6.400812 3.106803 0.119612
Li 9.745304 1.748019 7.890454
Li 8.606601 3.106803 3.284699
Li 11.683241 1.767905 10.769118
Li 9.745304 3.078855 -1.970703
Li 12.956560 1.682566 5.766641
Li 11.683241 3.058969 0.907961
Li 12.956560 3.144308 -4.094516
V 0.996387 4.450363 12.444025
V 2.174514 4.494409 15.171602
V 1.374394 0.602003 9.640355
V 4.519978 4.309892 17.276694
V 0.996387 0.376511 2.582868
V 2.174514 0.332465 5.310446
V 4.170365 4.322731 10.200187
V 6.012675 4.055776 12.576466
V 1.374394 4.224871 -0.220801
V 4.519978 0.516982 7.415538
V 7.662935 4.322268 15.101898
V 4.170365 0.504143 0.339030
V 7.344478 4.322268 8.024727
V 8.994738 4.055776 10.550158
V 6.012675 0.771098 2.715310
V 7.662935 0.504606 5.240741
V 10.837048 4.322731 12.926438
V 7.344478 0.504606 -1.836430
V 10.487435 4.309892 5.849931
V 13.633019 0.602003 13.486269
V 8.994738 0.771098 0.689002
V 10.837048 0.504143 3.065282
V 12.832899 4.494409 7.955022
V 14.011026 4.450363 10.682600
V 10.487435 0.516982 -4.011226
V 13.633019 4.224871 3.625113
V 12.832899 0.332465 -1.906134
V 14.011026 0.376511 0.821443
O 0.131435 0.213797 18.505106
O 0.596635 0.364260 15.985455
O 1.071544 2.793220 12.559449
O 1.963630 2.833105 15.331816
O 0.131435 4.613077 8.643949
O 2.314608 0.241580 13.567130
O 3.586396 0.282951 15.908264
O 4.378653 2.679856 16.999951
O 1.510796 2.197555 9.247040
O 2.449840 0.277869 11.068824
O 0.596635 4.462614 6.124298
O 3.045379 4.615838 8.725878
O 6.257086 0.282396 16.402697
O 4.890391 2.913882 13.316304
O 1.071544 2.033654 2.698292
O 1.963630 1.993769 5.470659
O 4.419518 2.698560 10.471146
O 5.228403 0.273549 11.541399
O 2.314608 4.585294 3.705974
O 3.586396 4.543923 6.047108
O 6.703541 0.264860 13.680318
O 4.378653 2.147018 7.138794
O 7.475147 2.696948 14.791875
O 1.510796 2.629319 -0.614116
O 2.449840 4.549005 1.207667
O 5.601217 0.272501 8.903028
O 7.503706 3.195912 11.563312
O 3.045379 0.211036 -1.135279
O 6.257086 4.544478 6.541541
O 4.890391 1.912992 3.455148
O 9.406196 0.272501 14.223597
O 4.419518 2.128314 0.609989
O 7.532266 2.696948 8.334750
O 5.228403 4.553325 1.680243
O 8.303872 0.264860 9.446306
O 6.703541 4.562014 3.819162
O 9.779010 0.273549 11.585225
O 7.475147 2.129926 4.930719
O 10.587895 2.698560 12.655479
O 5.601217 4.554373 -0.958129
O 10.117022 2.913882 9.810321
O 8.750327 0.282396 6.723928
O 11.962034 4.615838 14.400747
O 7.503706 1.630962 1.702156
O 9.406196 4.554373 4.362441
O 12.557573 0.277869 12.057801
O 13.496617 2.197555 13.879584
O 7.532266 2.129926 -1.526407
O 10.628760 2.679856 6.126674
O 8.303872 4.562014 -0.414850
O 11.421016 0.282951 7.218361
O 12.692805 0.241580 9.559495
O 9.779010 4.553325 1.724069
O 10.587895 2.128314 2.794323
O 13.043783 2.833105 7.794809
O 13.935869 2.793220 10.567176
O 10.117022 1.912992 -0.050836
O 8.750327 4.544478 -3.137229
O 11.962034 0.211036 4.539591
O 14.410778 0.364260 7.141170
O 12.557573 4.549005 2.196644
O 13.496617 2.629319 4.018428
O 10.628760 2.147018 -3.734482
O 11.421016 4.543923 -2.642796
O 12.692805 4.585294 -0.301662
O 14.875978 0.213797 4.621519
O 13.043783 1.993769 -2.066347
O 13.935869 2.033654 0.706020
O 14.410778 4.462614 -2.719986
O 14.875978 4.613077 -5.239637
