15

Li 3.325359 0.068687 0.069806
V 1.652286 4.963500 2.252871
V 1.640615 1.667641 2.870491
V 4.942974 4.988085 1.775655
Co 4.935419 1.696388 2.393274
O 0.222074 4.984815 1.280893
O 1.758001 1.547135 1.242465
O 1.689362 3.533783 3.225176
O 1.713469 6.365563 3.307432
O 3.053760 5.040120 1.197966
O 3.460016 1.605879 3.434292
O 4.861161 0.220257 1.352620
O 4.899199 3.185258 1.422484
O 4.821167 5.104123 3.403682
O 6.424778 1.676580 3.363722
