28

Li 1.913989 2.350979 8.381318
Li 0.010831 0.004577 9.396046
Li 5.765698 -2.900377 4.737497
Li 3.862539 -0.290450 3.718298
Fe 1.942132 2.407584 4.560893
Fe 3.834396 -0.229959 9.313495
Co 0.977966 3.673299 1.959044
Co 0.977140 1.201255 1.986296
Co 3.828637 2.243860 1.966278
Co 1.947892 -0.132473 6.714448
Co 4.798562 0.902252 6.713912
Co 4.799388 -1.569902 6.741166
O 1.010858 3.756690 5.612414
O 0.219693 2.422044 3.124915
O 1.965464 2.317299 0.967703
O -0.035751 0.059872 2.916501
O 0.035751 0.054922 7.624430
O 0.935312 1.138622 5.714522
O 2.872783 3.386789 3.088761
O 2.780364 1.209538 3.069826
O 1.876384 -0.072677 0.989692
O 3.900145 2.293750 5.657379
O 2.903745 0.878116 7.839177
O 2.996164 -1.311941 7.820459
O 3.811065 -0.317012 5.720251
O 4.765671 0.990202 0.951515
O 5.556836 -0.453991 7.881564
O 4.841216 -1.638327 1.053801
