44

Li 2.990481 4.950349 1.716064
Li 5.312030 8.378468 3.244495
Li 7.141737 1.714059 4.196344
Li 1.160774 11.614758 0.764216
Ni 2.187762 8.918325 1.498599
Ni 6.339017 11.074901 3.978878
Ni 1.963494 2.253916 0.981681
Ni 6.114750 4.410492 3.461961
P 1.865458 0.430161 3.513392
P 6.016714 6.234248 0.916463
P 4.453442 10.923126 1.302442
P 3.849069 2.405692 3.658117
P 8.000325 4.258717 1.061188
P 2.285798 7.094570 4.044097
P 0.302186 9.070100 3.899372
P 6.437053 12.898657 1.447167
O 5.338407 2.518813 3.361418
O 3.458693 0.834877 3.679357
O 3.510983 2.979604 -0.046659
O 1.187151 4.145582 0.881139
O 1.156615 9.720787 4.997966
O 5.307870 10.272440 2.401036
O 7.662238 3.684805 2.433621
O 5.687162 6.100866 4.499353
O 4.791529 10.349214 -0.069992
O 3.075424 8.113384 3.173954
O 0.640273 9.644013 2.526938
O 7.145897 3.608031 -0.037407
O 7.226680 11.879842 0.577024
O 6.599948 0.949732 0.870123
O 1.702563 12.379086 4.090436
O 2.615349 7.227951 0.461207
O 1.535906 0.563542 2.019073
O 2.448693 5.714677 3.467053
O 0.692562 7.499286 3.878133
O 1.075831 1.448976 4.383535
O 7.115360 9.183222 4.079421
O 7.609949 5.829532 1.082427
O 5.853818 7.614140 1.493507
O 4.843818 12.493940 1.281203
O 2.994641 3.056378 2.559523
O 6.766605 12.765275 2.941487
O 2.964104 10.810004 1.599141
O 5.227087 5.215433 1.786605
