38

Li 1.851780 6.057656 -0.399377
Li 1.237025 4.291417 3.205128
Li 4.862726 4.592395 -2.808149
Li 3.270568 0.818649 4.332878
Li 6.896269 1.119627 -1.680400
Li 6.281514 -0.646612 1.924106
V 0.000000 0.000000 0.000000
V 4.066647 2.705522 0.762364
S 4.421006 5.766694 1.234271
S 1.915407 2.993249 -1.356222
S 0.758755 1.611276 2.263016
S 7.374539 3.799767 -0.738288
S 6.217887 2.417794 2.880951
S 3.712287 -0.355650 0.290458
O 0.170905 6.736174 2.507376
O 2.002010 7.033765 -2.807900
O 0.262884 5.441523 0.930597
O 4.377078 6.253852 -2.307880
O 1.060760 3.887072 -0.732065
O 3.746927 5.260718 2.464683
O 4.180358 4.717584 0.455043
O 2.364975 3.498232 4.453111
O 1.928721 2.706853 1.541533
O 1.039630 1.612296 5.853446
O 3.416959 2.786015 -0.868030
O 6.640338 4.831243 -1.448327
O 1.492956 0.579809 2.973053
O 4.716334 2.625029 2.392759
O 7.093664 3.798747 -4.328717
O 6.204573 2.704191 -0.016805
O 5.768319 1.912811 -2.928383
O 3.952935 0.693460 1.069686
O 4.386367 0.150326 -0.939947
O 7.072541 1.523970 2.256791
O 3.756215 -0.842809 3.832609
O 7.870409 -0.030479 0.594131
O 6.131283 -1.622722 4.332628
O 7.962389 -1.325131 -0.982648
