38

Li 1.209035 0.386915 2.732568
Li 0.381561 2.364026 4.437154
Li 7.736537 3.100606 2.534453
Li 3.915611 6.458292 0.599223
Li 3.502488 0.822267 1.253008
Li 2.675015 2.799384 2.957590
Li 5.145302 3.593319 1.393083
Li 6.506847 5.965578 1.740594
Ti 2.198900 3.860264 0.335716
Ti 1.685149 5.880690 2.036561
Ti 6.256551 0.401404 2.472312
Ti 5.395597 2.602839 3.979246
Co 0.751983 1.314538 0.090921
Co 3.132067 1.871762 5.599237
Co 1.942025 4.870477 -2.298061
Co 5.826074 1.502122 -0.258421
Co 4.647017 4.482200 -1.189121
Co 7.005132 5.076698 4.322798
O 2.412608 0.251723 6.736517
O 2.177491 1.060473 4.300011
O 1.706558 2.125826 1.390147
O 0.926354 4.235721 3.255549
O 1.471441 2.934577 -1.046359
O 0.763845 5.122396 0.694366
O 4.835952 0.954469 5.272540
O 3.702393 3.552596 4.514263
O 0.181657 6.188357 -2.141986
O 4.623394 1.729543 2.684256
O 3.120205 4.618558 1.677911
O 7.656643 0.207956 6.558692
O 3.995506 2.796287 -0.107134
O 2.957696 5.505232 -0.883272
O 7.028755 1.274700 3.767301
O 6.286218 3.409256 5.390456
O 6.816196 2.049775 1.179018
O 6.122000 4.244300 3.027018
O 5.530149 5.314598 0.106659
O 5.365931 6.149642 -2.256780
