40

Li 2.092238 7.725258 7.905035
Li 6.276714 4.690193 6.374013
Li 6.277634 9.244080 6.412421
Li 6.275793 6.156409 9.782358
Fe 0.011173 0.017965 0.039811
Fe 0.545873 5.227350 6.550360
Fe 4.524456 3.712896 4.004220
Fe 4.173303 6.122747 7.142283
Fe 3.638603 8.564755 10.313202
Fe 8.028971 7.133920 7.812265
P 2.097996 3.097041 5.836268
P 2.086480 8.372034 5.232002
P 2.092238 5.442811 9.354943
P 6.276714 6.996228 4.909120
P 6.379350 3.866485 9.089296
P 6.174077 9.200382 8.587900
O 0.474704 1.009297 2.754860
O 0.474017 4.338677 2.246381
O 0.471239 2.694956 4.868499
O 1.923963 1.753946 6.703460
O 3.709772 3.519271 5.451337
O 2.267659 4.365236 6.440972
O 1.916816 8.128478 3.976402
O 2.260512 7.041102 6.063466
O 4.727704 7.309252 11.365169
O 2.284958 5.739856 8.090395
O 6.503546 5.623500 4.704577
O 4.927798 10.265537 11.032225
O 3.713237 9.509904 5.732369
O 1.899518 6.843274 9.541161
O 6.049882 6.722387 6.159634
O 3.710458 5.156612 10.075722
O 6.081073 5.189915 8.301020
O 6.531690 4.144948 10.337295
O 6.021737 7.954421 7.954496
O 4.510790 8.794604 8.912619
O 6.472355 10.514715 7.700555
O 7.625630 9.495657 9.663428
O 7.825723 8.197709 12.032956
O 8.042638 11.306054 11.567392
