40

Li 0.699928 2.822946 6.302314
Li 2.928653 7.029171 4.102859
Li 6.498403 4.197076 6.096115
Li 2.332497 8.054055 8.293284
Li 5.902247 5.221960 10.286540
Li 8.130972 9.428186 8.087085
Co 1.303918 1.808929 2.124652
Co 3.066265 4.253838 4.996287
Co 5.764635 7.997294 9.393112
Co 7.526982 10.442203 12.264746
P 0.374854 5.654485 5.319208
P 4.076970 2.579761 7.465701
P 6.553950 7.034095 5.148310
P 2.276950 5.217037 9.241088
P 4.753930 9.671371 6.923697
P 8.456046 6.596647 9.070191
O 1.420777 2.369821 5.001914
O 1.900683 4.962362 3.555948
O 4.699372 3.795141 4.511583
O 1.540012 4.710243 5.620439
O 1.121206 7.052234 4.659135
O 0.117071 5.899233 6.369879
O 2.238721 2.177198 7.582246
O 4.363374 3.707280 6.483881
O 4.637450 6.205807 5.071312
O 1.809805 3.827136 8.777285
O 1.094546 6.086661 8.550083
O 3.394024 9.128969 5.881147
O 5.436876 3.122162 8.508252
O 7.736354 6.164470 5.839315
O 7.021095 8.423996 5.612114
O 4.193450 6.045325 9.318087
O 4.467526 8.543851 7.905517
O 6.592179 10.073934 6.807152
O 8.713829 6.351899 8.019520
O 7.709694 5.198898 9.730264
O 7.290888 7.540888 8.768960
O 4.131528 8.455991 9.877816
O 6.930217 7.288770 10.833450
O 7.410123 9.881311 9.387485
