17

Fe 0.451432 2.709371 1.137670
Fe 2.277805 3.623101 5.729818
Fe 5.376714 2.688047 5.345658
Fe 4.039474 4.502733 1.996329
Fe 3.653174 6.793332 1.022224
O 2.455000 3.209545 1.446558
O 1.037137 3.504059 -0.466385
O 4.409514 4.187765 -2.152639
O 4.735005 5.351122 0.307222
F 0.454753 2.702759 5.214402
F 3.280757 2.126170 5.169535
F 1.686592 1.074540 0.507906
F 1.237131 5.100450 6.192124
F 3.153656 4.070452 3.865794
F 2.896081 5.929183 2.621810
F 5.214523 3.092047 1.467363
F 4.651380 7.062288 -0.952834
