30

Ba 1.571288 3.856005 4.988963
Ba 1.713124 3.926424 9.587503
Ba 3.368356 7.798439 7.598152
Ba 3.511270 7.875480 3.005068
Li 2.158745 1.261855 2.923946
Li 2.763542 1.594216 7.502773
V 0.130746 0.068877 9.176635
V 4.944466 2.468811 4.578565
P 0.382119 6.938985 5.448698
P 0.727216 7.106886 10.041998
P 4.344032 4.545118 7.056319
P 4.732171 4.745092 2.462199
O 0.180391 1.140210 3.213324
O 0.143039 3.028511 7.518057
O 0.138977 3.572624 2.659236
O 1.964659 0.989691 9.034335
O 0.387249 7.410910 6.872516
O 0.473399 7.436141 11.470455
O 0.692846 8.424562 9.293051
O 3.105267 1.555722 4.441009
O 1.917096 7.020634 5.012928
O 2.208681 6.754698 9.880819
O 2.891759 4.951583 7.230857
O 3.197108 4.575312 2.905666
O 4.260498 3.175745 7.798950
O 4.571317 4.210873 5.627817
O 4.779615 4.322678 1.032910
O 4.948172 8.111458 5.305044
O 4.992094 8.536433 9.613155
O 4.997406 10.559359 4.681963
