22

Li 2.198856 3.433903 4.173478
Li 2.846368 4.298191 7.368420
Li 3.057235 0.919745 2.817564
Li 4.559553 1.005144 6.977924
Ti 0.018763 3.298351 6.204818
Ti 6.152651 2.006953 4.225520
B 1.142931 0.848715 4.988731
B 4.320416 3.542861 2.450710
B 1.933678 1.753230 8.103608
B 5.390840 4.488529 5.723371
O 6.161908 3.664597 4.996835
O 1.530781 1.441813 1.320275
O 1.238659 4.595936 5.522249
O 1.866860 1.488211 4.149824
O 3.448646 4.207686 3.104526
O 1.393610 2.969371 7.587153
O 4.818730 2.242836 2.873689
O 2.791360 0.999257 7.504595
O 4.796667 4.073850 6.793767
O 5.305010 0.690845 5.123139
O 4.825360 3.964187 9.330254
O 0.093898 1.516766 5.618477
