28

Li 1.939887 2.362385 8.557125
Li 0.035621 0.000463 9.473452
Li 0.051104 -0.006334 4.698381
Li 3.853973 -0.270619 3.750428
Mn 3.817681 2.225177 2.136356
Mn 4.795438 0.887279 6.870235
Mn 4.796150 -1.587322 6.824546
Cr 1.878616 2.370764 4.659191
Cr 3.836559 -0.303115 9.405552
Co 0.969637 3.669903 2.097266
Co 0.964744 1.195513 2.039506
Co 1.935601 -0.140946 6.773362
O 0.905699 3.706522 5.784220
O 0.210540 2.530470 3.238490
O 1.917221 2.367471 1.118984
O 0.005813 -0.000943 2.911902
O 0.003100 -0.002351 7.680593
O 0.899956 1.175455 5.731994
O 2.780706 3.416144 3.281826
O 2.813383 1.205744 3.287369
O 1.895781 -0.174006 1.022112
O 3.919958 2.222803 5.818769
O 3.035647 0.909196 8.044355
O 3.035155 -1.356033 8.000337
O 3.854806 -0.280046 5.836562
O 4.857103 0.935849 1.075724
O 5.571967 -0.407595 8.003310
O 4.821291 -1.652277 0.998642
