46

Li 3.951404 0.719363 3.636214
Li 1.324932 3.675114 9.224971
Li 2.631161 3.723657 6.385712
Li 3.865622 3.765023 3.637097
Li 3.863121 5.182746 8.327546
Li 5.183364 8.187040 5.578049
Li 1.279910 8.138496 4.498802
Li 3.948904 8.228406 8.326664
V 0.063641 0.743010 2.391151
V 0.003053 2.170445 7.370528
V 2.558856 0.687218 6.464933
V 1.345166 2.321977 4.483941
V 2.608317 2.183067 1.523576
V 5.202968 3.860843 0.709769
V 3.831665 2.253910 8.401505
V 0.045986 5.150601 7.258840
V 5.206209 6.646449 0.704332
V 2.541200 5.206393 1.596769
V 1.259675 6.785359 9.239832
V 2.601789 6.633827 6.353245
V 3.982861 6.717292 3.562256
V 2.611557 8.324226 1.518139
O 0.694816 0.825476 5.918696
O 1.968682 0.801248 3.020233
O 0.531138 2.299151 1.141991
O 2.039737 2.190075 7.812671
O 3.376297 0.783403 0.078415
O 4.411305 0.789661 6.945328
O 3.181153 2.138478 5.033950
O 0.607918 3.563681 5.969696
O 1.980206 3.700385 2.897825
O 4.686392 2.233431 2.023975
O 3.225138 3.756347 0.177080
O 0.636160 5.264631 0.967687
O 1.910026 5.288858 7.805077
O 4.598025 3.619160 6.966501
O 0.565105 6.653458 5.911102
O 3.403221 5.253044 5.018433
O 2.073704 6.762534 2.845929
O 4.438229 5.246786 2.149493
O 0.624636 8.163768 1.090095
O 3.128134 6.696815 0.203932
O 4.633373 6.601860 6.929811
O 1.996924 8.027063 7.754077
O 3.216500 8.082543 4.997259
O 4.589388 8.219729 2.050827
