45

Li 1.748088 7.788002 -2.694540
Li 0.409699 6.341518 -1.164514
Li 1.517819 7.645144 1.815934
Li 4.363628 5.569440 1.999456
Li 1.513931 3.454223 -1.361782
Li 4.475869 5.548952 6.194322
Li 1.455907 3.495646 2.965152
Li 3.531347 2.473875 1.898714
Li 5.487284 2.467863 6.273541
Cr 3.216944 6.920107 -0.492956
Cr 0.230943 2.110695 1.014269
Cr 2.754191 2.084669 5.370700
Cr 5.833158 6.913742 3.863451
B 4.334962 8.517169 -2.948324
B 4.709658 8.488316 1.422211
B 2.091862 4.874425 0.610125
B 5.066526 4.143047 -0.059422
B 0.937325 4.887782 4.967656
B 3.932670 4.111698 4.276317
B 1.336813 0.461622 3.422999
B 1.670357 0.466610 7.785899
O 3.626805 7.426219 -2.275444
O 1.550643 8.029690 -0.837596
O 4.351612 8.157997 0.221703
O 5.428110 7.404411 2.073189
O 1.366038 8.086820 3.528130
O 4.720857 5.457439 -0.677504
O 2.024143 5.182657 -0.668390
O 4.691956 8.174602 4.540470
O 2.635048 6.070942 1.165608
O 4.372281 5.393948 3.754754
O 5.750968 3.079022 -0.655136
O 0.946832 5.183560 3.712519
O 4.911599 3.841881 1.191250
O 0.428034 6.074281 5.590799
O 1.773445 3.574957 1.192255
O 3.235098 3.037996 3.693412
O 1.420405 0.680506 0.316899
O 4.038665 3.716192 5.546615
O 1.240181 3.554470 5.536625
O 4.624050 0.893356 1.253472
O 0.757516 1.577849 2.759396
O 1.789926 0.595617 4.637577
O 4.400105 0.876479 5.614197
O 2.199800 1.564666 7.001173
