32

Li 0.028565 8.925024 3.811896
Li 1.574624 0.938991 3.808758
Li 1.565768 6.314358 3.808758
Li 3.111826 3.549656 3.811896
Li 3.168956 7.201079 1.297877
Li 4.715015 4.436377 1.294740
Li 4.706159 9.811745 1.294740
Li 6.252217 1.825711 1.297877
Co 1.508606 4.458588 1.308979
Co 1.631785 9.833956 1.308979
Co 4.648997 0.916780 3.822998
Co 4.772176 6.292147 3.822998
Si 0.032842 7.172557 1.325179
Si 3.107549 1.797190 1.325179
Si 3.173233 8.953546 3.839198
Si 6.247940 3.578178 3.839198
O 6.247111 3.577812 0.458813
O 0.046057 8.741380 0.785158
O 1.745612 1.006505 0.791986
O 1.338102 4.352887 3.311852
O 1.802289 9.728254 3.311852
O 1.394780 6.381873 0.791986
O 3.094334 3.366012 0.785158
O 3.174062 8.953180 0.458813
O 3.106720 1.797555 2.972832
O 3.186448 7.384723 3.299177
O 4.886003 4.368862 3.306005
O 4.478493 1.022481 0.797834
O 4.942681 6.397849 0.797834
O 4.535171 9.744230 3.306005
O 6.234725 2.009355 3.299177
O 0.033671 7.172923 2.972832
