24

Li 0.000000 0.632838 1.239707
Li 0.000000 11.048623 3.719103
Li 2.296864 6.473784 1.239477
Li 2.296864 5.208973 3.718882
V 0.000032 3.749096 1.239739
V -0.000046 7.933101 3.719041
V 2.296850 9.589913 1.239371
V 2.296850 2.092177 3.718870
F 1.052120 2.247910 2.090202
F 1.052152 9.434099 4.569343
F 1.147780 0.792659 4.538828
F 1.147752 10.888976 2.059471
F 1.148887 6.634061 4.538913
F 1.149231 5.048100 2.059500
F 1.244625 3.592557 4.569764
F 1.244721 8.089429 2.090094
F 3.349016 8.089429 0.388863
F 3.349103 3.592556 2.868013
F 3.444501 5.048099 0.419467
F 3.444850 6.634061 2.898855
F 3.445953 0.792659 2.898948
F 3.445980 10.888976 0.419477
F 3.541613 2.247910 0.388754
F 3.541576 9.434098 2.868416
