46

Li 0.289160 1.682375 0.597680
Li 0.289160 5.098770 0.597680
Li 5.073405 8.463519 6.268486
Li 5.073405 11.879914 6.268486
P 5.325306 8.709865 2.344255
P 5.325306 11.633569 2.344255
P 1.799838 1.043984 6.546532
P 1.799838 5.737160 6.546532
P 2.455610 10.171717 7.783721
P 2.906955 3.390572 -0.917554
P 3.562727 7.825129 0.319635
P 3.562727 12.518305 0.319635
P 0.037259 4.852424 4.521911
P 0.037259 1.928720 4.521911
W 2.681282 0.000000 3.433083
W 2.681282 6.781145 3.433083
O 0.356283 3.390572 3.930741
O 1.009294 0.499920 7.788155
O 1.009294 6.281225 7.788155
O 1.051454 10.171717 7.401022
O 0.779266 1.953471 5.802302
O 0.779266 4.827673 5.802302
O 0.733926 0.996042 3.466777
O 0.733926 5.785103 3.466777
O 1.477472 8.572411 3.835366
O 1.477472 11.771023 3.835366
O 2.913878 2.136861 6.830212
O 2.913878 4.644284 6.830212
O 2.557332 0.088969 5.549937
O 2.557332 6.692176 5.549937
O 1.608399 3.390572 0.060218
O 3.754166 10.171717 6.805948
O 2.805227 6.870113 1.316232
O 2.805227 13.473321 1.316232
O 2.448687 8.918005 0.035955
O 2.448687 11.425428 0.035955
O 3.885093 1.791266 3.030800
O 3.885093 4.989892 3.030800
O 4.628639 7.777186 3.399389
O 4.628639 12.566248 3.399389
O 4.583298 8.734616 1.063864
O 4.583298 11.608818 1.063864
O 4.311111 3.390572 -0.534856
O 4.353271 7.281064 -0.921989
O 4.353271 13.062370 -0.921989
O 5.006282 10.171717 2.935425
