32

V 3.905660 4.937827 0.834828
V 4.061976 2.539674 8.839153
V 2.389796 2.475989 3.352672
V 2.557181 4.834362 12.415033
V 1.326979 4.960211 6.745451
V 1.406550 2.551375 14.709532
V 0.205523 4.781231 1.038571
V 0.027234 2.521813 9.261129
O 4.996274 6.320040 7.936121
O 2.079894 4.844239 0.514631
O 2.090084 1.435326 4.767989
O 2.109294 3.794676 13.894140
O 0.514581 2.409353 3.848062
O 0.388531 4.737896 12.973915
F 4.754529 6.420526 -0.032973
F 5.034192 4.057433 -1.226928
F 2.770083 5.829147 2.875701
F 4.704014 2.573160 2.608395
F 4.815511 4.003414 7.928147
F 4.793437 4.914824 11.655892
F 3.064389 3.460715 1.701942
F 2.999117 5.848536 10.866795
F 2.994774 4.859724 7.171678
F 2.439629 3.902303 4.781137
F 2.744339 3.426465 10.830022
F 2.248446 2.483904 8.426940
F 3.060880 2.514866 15.171054
F 0.421831 3.404193 7.644971
F 2.492685 1.513144 12.771150
F 0.125921 3.328369 16.815133
F 0.162345 1.020913 7.708033
F 0.422435 1.012321 15.637545
