28

Li 2.003554 2.497708 8.354837
Li 5.948354 2.257912 9.314398
Li 6.072184 2.255360 4.565474
Li 3.992757 -0.299086 3.759149
Co 2.199963 2.555289 4.895881
Co 4.099103 2.374603 1.807523
Co 4.357666 -0.296810 9.345457
Co 5.204490 0.941057 6.695432
Co 5.190937 -1.690306 6.810964
Te 1.047728 3.923633 1.905400
Te 1.036931 1.280161 2.025863
Te 2.145481 -0.148928 6.946540
O 1.103715 4.061702 5.694134
O 0.174040 2.602877 3.166456
O 1.915967 2.466299 0.793134
O 0.107659 0.051890 3.164823
O 0.194112 -0.004938 7.989729
O 1.112958 1.156035 5.838096
O 2.957486 3.681200 2.942052
O 2.909851 1.229577 3.015006
O 1.883755 -0.067806 0.926510
O 4.255393 2.481119 5.654669
O 3.157356 0.932211 8.035369
O 3.120233 -1.387740 8.117564
O 3.985427 -0.292409 5.738122
O 5.238349 1.026508 0.664876
O 5.956960 -0.534409 7.852342
O 5.304192 -1.772388 0.827265
