14

Li 0.874055 1.005673 1.166984
Li 5.159070 7.420172 8.793344
Co 0.000000 2.704641 3.471883
Co 3.016563 4.212922 4.980164
Sb 3.016563 1.508281 4.046750
Sb 3.016563 4.212922 2.441695
O 1.653873 2.176238 2.559003
O 1.668063 2.155930 4.857590
O 1.668063 4.634907 3.386454
O 4.385992 3.542298 3.925062
O 1.647134 4.883547 6.035265
O 4.365063 6.269914 5.102737
O 4.365063 3.790938 6.573873
O 4.379253 6.249606 7.401325
