24

Li 0.000009 0.000018 0.102991
Li 8.584739 -4.292352 2.715118
Si 2.861488 3.525665 0.906208
Si 5.723045 -0.383365 3.518597
Bi 0.754780 5.069940 3.663147
Bi 2.294628 1.493744 3.663105
Bi 5.535082 4.013328 3.663102
Bi 3.049623 -0.870987 1.050996
Bi 6.289999 1.648591 1.050988
Bi 7.829753 -1.927640 1.050967
O 0.710251 6.002806 1.712527
O 1.123212 3.386463 0.261896
O 3.435456 4.744066 0.261916
O 2.861523 3.525588 2.545657
O 1.243210 1.070299 1.712507
O 4.025830 2.446464 0.261845
O 1.953556 -0.361559 4.324620
O 6.631055 3.503888 1.712551
O 4.558677 0.695931 2.873990
O 7.341409 2.072026 4.324638
O 5.723114 -0.383355 5.157596
O 5.149085 -1.601844 2.873998
O 7.461450 -0.244145 2.873951
O 7.874342 -2.860506 4.324624
