34

Mg 1.167533 2.850643 0.668277
Cr 2.979780 -0.903640 3.830925
Cr 5.492087 4.700735 5.153071
Cr 7.132203 0.805471 8.210710
Se 4.528898 3.667332 2.381508
Se 2.129887 4.865245 6.061387
S 0.317219 1.833708 2.876583
S 6.238033 -1.085794 2.822294
S 3.943146 0.016749 6.590968
S 8.094178 1.951005 6.114516
O 2.480516 6.255195 -0.012653
O 0.960710 6.810256 2.052541
O 0.096098 2.250191 1.752068
O 0.135721 3.059309 3.802176
O 0.183639 5.444862 5.409659
O 2.778033 3.308189 2.156510
O 4.433407 5.282805 2.208556
O 1.961170 0.930351 3.209609
O 5.750605 2.698274 1.455527
O 3.301998 4.454671 5.072824
O 5.507076 3.390510 3.701092
O 2.468384 3.491217 6.702750
O 5.993493 0.155100 2.210603
O 3.281386 0.223776 5.380284
O 5.094670 -0.622195 3.635086
O 2.836632 0.902503 7.323712
O 6.489571 2.976280 5.916803
O 4.222083 -1.458155 6.718945
O 5.572682 0.340814 6.850270
O 7.897733 -1.551005 3.418688
O 8.214142 0.793295 5.197141
O 8.269808 1.449474 7.246416
O 7.557769 -3.080659 7.073511
O 5.806355 -2.227056 8.932658
