104

Li 0.316533 2.072698 5.251742
Li 0.316533 2.631906 12.270423
Li 2.126854 8.976562 5.229984
Li 2.126854 5.137248 12.248665
Li 2.624321 0.432645 12.248665
Li 2.624321 4.271959 5.229984
Li 4.434642 6.777301 5.251742
Li 4.434642 7.336509 12.270423
Li 5.067708 2.072698 1.766939
Li 5.067708 2.631906 8.785620
Li 6.878029 5.137248 8.807378
Li 6.878029 8.976562 1.788697
Li 7.375496 4.271959 1.788697
Li 7.375496 0.432645 8.807378
Li 9.185817 7.336509 8.785620
Li 9.185817 6.777301 1.766939
Mn 1.327032 0.963324 1.735214
Mn 1.327032 3.741279 8.753896
Mn 3.424143 5.667927 1.735214
Mn 3.424143 8.445883 8.753896
Mn 6.078207 0.963324 5.283467
Mn 6.078207 3.741279 12.302148
Mn 8.175318 5.667927 5.283467
Mn 8.175318 8.445883 12.302148
S 0.704561 0.660376 10.229194
S 0.704561 4.044228 3.210513
S 1.530477 6.471841 6.884273
S 1.530477 7.641970 13.902954
S 3.220698 1.767237 6.884273
S 3.220698 2.937366 13.902954
S 4.046614 8.748831 3.210513
S 4.046614 5.364979 10.229194
S 5.455736 4.044228 3.808168
S 5.455736 0.660376 10.826849
S 6.281652 6.471841 0.134408
S 6.281652 7.641970 7.153089
S 7.971873 1.767237 0.134408
S 7.971873 2.937366 7.153089
S 8.797789 5.364979 10.826849
S 8.797789 8.748831 3.808168
O 0.058316 6.586379 6.698320
O 0.058316 7.527431 13.717002
O 0.159639 9.382673 4.831800
O 0.159639 4.731137 11.850482
O 0.237739 4.345134 4.609603
O 0.237739 0.359469 11.628284
O 0.684872 2.151415 10.145840
O 0.684872 2.553188 3.127159
O 1.790594 6.897701 1.136184
O 1.790594 7.216109 8.154865
O 1.950101 9.068697 0.014150
O 1.950101 5.045113 7.032831
O 2.103203 0.146200 10.147918
O 2.103203 4.558403 3.129237
O 2.288622 7.029468 5.731076
O 2.288622 7.084342 12.749757
O 2.462553 2.324864 5.731076
O 2.462553 2.379739 12.749757
O 2.647972 9.263007 3.129237
O 2.647972 4.850804 10.147918
O 2.801074 0.340510 7.032831
O 2.801074 4.364094 0.014150
O 2.960581 2.193098 1.136184
O 2.960581 2.511506 8.154865
O 4.066303 7.257792 3.127159
O 4.066303 6.856019 10.145840
O 4.513436 5.064073 11.628284
O 4.513436 9.049738 4.609603
O 4.591536 4.678070 4.831800
O 4.591536 0.026534 11.850482
O 4.692859 1.881785 6.698320
O 4.692859 2.822819 13.717002
O 4.809491 6.586379 0.320361
O 4.809491 7.527431 7.339042
O 4.910815 4.731137 9.205562
O 4.910815 9.382673 2.186881
O 4.988914 4.345134 2.409078
O 4.988914 0.359469 9.427759
O 5.436047 2.553188 3.891522
O 5.436047 2.151415 10.910203
O 6.541769 6.897701 5.882497
O 6.541769 7.216109 12.901178
O 6.701276 5.045113 14.023213
O 6.701276 9.068697 7.004531
O 6.854378 4.558403 3.889444
O 6.854378 0.146200 10.908125
O 7.039797 7.029468 1.287605
O 7.039797 7.084342 8.306286
O 7.213728 2.324864 1.287605
O 7.213728 2.379739 8.306286
O 7.399147 4.850804 10.908125
O 7.399147 9.263007 3.889444
O 7.552249 4.364094 7.004531
O 7.552249 0.340510 14.023213
O 7.711756 2.193098 5.882497
O 7.711756 2.511506 12.901178
O 8.817478 6.856019 10.910203
O 8.817478 7.257792 3.891522
O 9.264611 5.064073 9.427759
O 9.264611 9.049738 2.409078
O 9.342711 0.026534 9.205562
O 9.342711 4.678070 2.186881
O 9.444034 1.881785 0.320361
O 9.444034 2.822819 7.339042
