28

Li 1.360464 6.675200 2.204664
Li 3.820796 2.179207 2.204664
Li 6.541725 6.812777 0.734888
Li 9.002057 2.316785 0.734888
Cr 1.065557 3.720865 0.734888
Cr 1.222477 0.537730 2.204664
Cr 3.958784 5.033722 2.204664
Cr 4.115703 8.216858 0.734888
Cr 6.246818 0.775127 2.204664
Cr 6.403738 3.958263 0.734888
Cr 9.140045 8.454255 0.734888
Cr 9.296964 5.271119 2.204664
O 0.274441 5.562918 0.734888
O 0.725035 8.248231 0.734888
O 1.606844 1.773948 0.734888
O 2.258802 4.221503 2.204664
O 2.922459 8.717495 2.204664
O 3.574417 6.269940 0.734888
O 4.456226 3.752238 0.734888
O 4.906820 1.066926 0.734888
O 5.455702 7.925059 2.204664
O 5.906295 5.239746 2.204664
O 6.788104 2.722045 2.204664
O 7.440063 0.274489 0.734888
O 8.103720 4.770482 0.734888
O 8.755678 7.218037 2.204664
O 9.637487 0.743754 2.204664
O 10.088081 3.429066 2.204664
