18

Li 0.046631 -0.000665 0.027749
Li 4.733206 2.359666 2.417420
V 1.547816 2.461306 2.285898
V 3.026374 4.661183 0.067900
V 6.234391 4.615697 4.675568
V 7.712949 2.415820 2.457570
O 1.675957 3.769934 0.976138
O 6.362531 3.307070 3.365808
F 0.005924 3.287259 3.283304
F 1.596482 0.985794 3.742835
F 3.109214 3.299790 3.312642
F 3.098566 1.427729 1.437026
F 4.639325 0.868381 3.860022
F 4.692499 3.789745 0.955559
F 6.283057 1.373208 1.415089
F 7.785141 0.931272 3.826697
F 7.795789 3.777214 0.984897
F 9.325900 1.490620 1.532277
