28

Li 1.979970 2.399796 8.594952
Li 5.821530 2.148072 9.650639
Li 0.029643 -0.001600 4.637759
Li 3.922091 -0.260022 3.896416
Mn 3.793503 2.280548 2.184633
Mn 4.876441 0.923786 6.923716
Mn 4.876089 -1.570453 6.894734
V 1.870471 2.407940 4.659813
V 3.835428 -0.254697 9.552678
Co 0.975073 3.694081 2.087845
Co 0.974106 1.240699 2.060253
Co 1.988785 -0.132009 6.793602
O 0.958743 3.740577 5.761636
O 0.264912 2.513576 3.487586
O 1.997682 2.399006 1.085086
O 5.774773 2.148559 3.001237
O 0.028220 -0.001093 7.675523
O 0.959094 1.197901 5.733059
O 2.930911 3.426516 3.405488
O 2.930343 1.248188 3.381161
O 2.008576 -0.133421 0.801782
O 3.975502 2.268216 5.855977
O 3.107439 0.922857 8.060727
O 3.107228 -1.335929 8.034953
O 3.927643 -0.260907 5.900448
O 4.726392 0.918746 0.947865
O 5.633276 -0.372996 8.064243
O 4.726047 -1.544867 0.919381
