56

Li 12.268638 5.582604 0.416225
Li 10.374556 3.833899 -0.900590
Li 11.282532 1.854206 3.506830
Li 9.422140 2.977269 1.568087
Li 9.422140 5.853164 0.824295
Li 7.561736 4.100337 -0.370644
Li 8.469724 2.120638 4.036765
Li 6.575643 0.371939 2.719948
Li 4.706796 1.466416 0.769871
Li 5.618360 2.319082 4.521314
Li 4.701731 4.380067 0.001768
Li 3.743880 0.592500 3.247265
Li 2.826645 2.618716 4.981765
Li 1.909409 4.644939 0.519250
Li 0.946493 3.771023 2.996638
Li 0.951559 0.857372 3.764748
Li 0.034917 2.918356 -0.754798
Ni 12.264957 2.750354 1.096915
Ni 10.371456 0.980232 -0.168095
Ni 11.307542 4.736891 2.814712
Ni 8.472811 4.974310 3.304274
Ni 7.536726 1.217652 0.321467
Ni 6.579310 3.204188 2.039264
Ni 5.633477 5.190583 3.787767
Ni 3.757981 3.446701 2.521783
Ni 2.826645 5.494612 4.237973
Ni 1.895308 1.790737 1.244726
Ni 0.019800 0.046855 6.175762
O 11.885070 2.256687 -0.646124
O 12.568482 3.215012 2.851353
O 11.699103 5.235098 -1.644374
O 12.631640 5.978943 2.337272
O 10.971924 4.235644 1.062869
O 10.954881 1.468359 1.540771
O 8.939522 2.345305 -0.253209
O 9.904759 3.609238 3.389388
O 9.987335 6.220962 2.752016
O 8.856933 5.485366 -1.103425
O 7.872357 1.718899 2.073310
O 7.889387 4.486183 1.595402
O 6.212627 5.727391 -0.688677
O 6.275799 2.739531 0.284826
O 7.145164 0.719444 4.780554
O 6.959198 3.697856 3.782304
O 5.193306 2.069320 2.581572
O 5.160118 4.597332 1.987955
O 3.169215 0.279042 1.286246
O 4.274686 0.827598 5.155851
O 3.210186 3.020658 0.800864
O 4.195513 3.849363 4.277027
O 2.443090 2.216780 2.965651
O 2.484075 4.958397 2.480269
O 0.459983 3.168119 1.184943
O 0.493172 0.640107 1.778554
O 1.378604 4.409840 4.807683
O 1.457776 1.388075 5.686508
