80

Li 0.350112 3.591949 7.409390
Li 2.843641 10.775847 2.409673
Li 6.037394 10.775847 2.590043
Li 3.543865 3.591949 7.589760
Fe 5.481432 5.569590 1.566881
Fe 0.906074 8.798206 8.432552
Fe 4.127300 8.543624 0.577787
Fe 2.260206 1.359725 9.421646
Fe 0.906074 12.753488 8.432552
Fe 5.453960 1.359725 5.577504
Fe 0.933547 13.008071 4.421929
Fe 0.933547 8.543624 4.421929
Fe 4.099827 12.753488 6.566598
Fe 4.127300 13.008071 0.577787
Fe 2.287679 5.569590 3.432836
Fe 4.099827 8.798206 6.566598
Fe 5.453960 5.824173 5.577504
Fe 2.287679 1.614308 3.432836
Fe 5.481432 1.614308 1.566881
Fe 2.260206 5.824173 9.421646
P 0.928309 8.233624 1.316715
P 5.459197 6.134173 8.682718
P 2.265444 1.049726 6.316432
P 4.122062 13.318071 3.683001
P 4.122062 8.233624 3.683001
P 2.265444 6.134173 6.316432
P 3.168708 3.591949 0.929397
P 0.025045 10.775847 5.929114
P 3.218799 10.775847 9.070036
P 0.928309 13.318071 1.316715
P 5.459197 1.049726 8.682718
P 6.362461 3.591949 4.070319
O 4.539141 12.254193 2.650870
O 1.345388 12.254193 2.348847
O 3.002952 8.748997 4.640517
O 5.878154 14.154262 7.880864
O 3.543712 10.775847 0.586427
O 6.037548 3.591949 5.586144
O 3.384554 5.618800 5.358916
O 5.747715 2.284135 3.513761
O 2.553961 2.284135 1.485956
O 0.639792 9.468033 6.485673
O 4.706059 3.591949 1.182623
O 0.190801 1.565098 9.640234
O 3.002952 12.802698 4.640517
O 6.196705 8.748997 0.359200
O 0.190801 5.618800 9.640234
O 2.684401 7.397433 7.118287
O 2.843795 3.591949 9.413007
O 0.349959 10.775847 4.413290
O 5.042119 5.070295 7.650587
O 3.833545 12.083662 8.513478
O 3.703106 6.970364 2.881147
O 2.553961 4.899763 1.485956
O 1.095489 6.461327 5.296460
O 5.747715 4.899763 3.513761
O 3.703106 0.213534 2.881147
O 1.345388 9.297502 2.348847
O 0.639792 12.083662 6.485673
O 4.289243 6.461327 9.702690
O 1.512312 3.591949 3.817094
O 0.509353 0.213534 2.118570
O 5.292017 13.645226 4.702974
O 5.878154 7.397433 7.880864
O 0.509353 6.970364 2.118570
O 6.196705 12.802698 0.359200
O 4.289243 0.722571 9.702690
O 2.098264 13.645226 0.296743
O 3.833545 9.468033 8.513478
O 1.681441 10.775847 8.816810
O 1.848366 5.070295 7.348564
O 4.875200 10.775847 6.182340
O 3.384554 1.565098 5.358916
O 2.684401 14.154262 7.118287
O 1.848366 2.113603 7.348564
O 5.292017 7.906469 4.702974
O 5.042119 2.113603 7.650587
O 2.098264 7.906469 0.296743
O 4.539141 9.297502 2.650870
O 1.095489 0.722571 5.296460
