21

Li 2.026983 1.418571 4.051000
Li 0.364883 4.263543 4.677862
Li 5.607621 4.389300 0.948442
Li 4.397676 2.073912 4.219234
Li 7.097161 2.163124 1.103196
Li 2.732773 4.913778 4.842175
Ni 7.918391 0.233643 -2.173021
Ni 1.552218 2.154568 1.479971
Ni 4.785407 1.151721 1.917541
Ni 3.205967 4.180295 2.761784
Ni 6.355678 3.275116 3.352515
O 3.507877 1.207466 0.617797
O 1.751247 4.408638 6.060021
O 0.193989 2.228297 4.705770
O 3.008501 1.931882 2.834550
O 6.670997 0.285557 1.164117
O 1.256348 5.122886 3.622762
O 5.179378 3.267960 2.002256
O 7.523499 3.279712 0.049553
O 6.031943 1.098636 3.234756
O 4.571182 4.110580 4.189183
