22

Li 0.830349 2.658122 7.669320
Li 1.715803 3.074905 2.479193
Li 3.383341 3.904958 7.507097
Li 4.249536 4.388712 2.320390
Mn 0.839329 3.399818 5.109481
Mn 3.390170 4.702507 10.068910
Mn 1.714335 2.327585 -0.096224
Mn 4.258358 3.578878 4.870424
Mn 2.531496 1.273211 4.969094
Cu 0.005983 4.473743 0.055222
O 0.057938 2.817533 1.125687
O 1.853327 3.732620 9.077713
O 0.833397 2.053828 3.952588
O 2.523312 4.137279 3.933252
O 2.374404 2.832718 6.149487
O 0.906659 4.900489 6.073057
O 4.362767 5.069298 5.938228
O 3.251367 3.299619 0.911811
O 1.745192 5.344080 0.881037
O 5.044030 4.209568 8.850519
O 3.366203 6.168991 9.153415
O 4.187853 6.554946 3.952003
