28

Li 2.072178 2.423387 8.405036
Li 5.798153 2.156702 9.099871
Li 5.761008 2.160125 4.248356
Li 3.990613 -0.285334 3.497823
Ti 1.039405 3.781250 1.859633
Ti 1.039541 1.213477 1.966042
Ti 2.015337 -0.143967 6.745835
Mn 1.973365 2.430813 4.488016
Mn 3.911023 2.291958 1.614520
Mn 4.020994 -0.287787 9.265566
Mn 4.957344 0.903813 6.505463
Mn 4.957545 -1.612667 6.610397
O 0.898271 3.865670 5.658196
O 0.225458 2.555053 3.109094
O 1.947391 2.432517 0.772139
O 5.874406 2.151175 2.429859
O 0.026589 -0.001928 7.873793
O 0.898643 1.150215 5.771052
O 2.807191 3.561077 2.887644
O 2.808629 1.181395 2.985158
O 1.816805 -0.129830 0.891802
O 3.940162 2.290180 5.486502
O 3.156999 0.893879 7.831713
O 3.156904 -1.345289 7.925208
O 3.908910 -0.279363 5.582931
O 4.964219 0.916170 0.496347
O 5.818245 -0.415943 7.593897
O 4.963710 -1.627844 0.602581
