88

Li 0.768432 6.110363 4.715917
Li 0.768432 8.285184 0.517287
Li 1.364772 1.285686 4.800842
Li 1.364772 3.512830 0.602212
Li 2.424583 8.563796 5.817978
Li 2.424583 5.831751 1.619348
Li 3.806838 6.414464 4.338510
Li 3.806838 7.981083 0.139881
Li 4.439636 0.940231 4.638449
Li 4.439636 3.858285 0.439820
Li 6.702546 5.738747 7.770646
Li 6.702546 8.656801 3.572016
Li 7.335344 1.615948 8.070585
Li 7.335344 3.182568 3.871955
Li 8.717598 3.765280 6.591117
Li 8.717598 1.033236 2.392487
Li 9.777409 6.084201 7.608253
Li 9.777409 8.311346 3.409624
Li 10.373750 1.311847 7.693178
Li 10.373750 3.486669 3.494549
Mn 3.017046 3.782708 6.053078
Mn 3.017046 1.015807 1.854448
Mn 8.125135 8.581224 6.356017
Mn 8.125135 5.814323 2.157388
C 0.231913 3.716172 6.341896
C 0.231913 1.082344 2.143266
C 2.276582 6.122071 7.214992
C 2.276582 8.273476 3.016354
C 3.190107 1.262029 7.330825
C 3.190107 3.536477 3.132196
C 5.414577 8.122380 6.091978
C 5.414577 6.273167 1.893348
C 5.727605 3.323865 6.317117
C 5.727605 1.474651 2.118488
C 7.952075 6.060545 5.078270
C 7.952075 8.335003 0.879640
C 8.865600 1.323555 5.194103
C 8.865600 3.474960 0.995473
C 10.910268 8.514688 6.067199
C 10.910268 5.880859 1.868570
O 0.051332 7.897541 5.177225
O 0.051332 6.498006 0.978596
O 0.379102 9.563797 6.661429
O 0.379102 4.831750 2.462800
O 1.212537 3.222606 5.549667
O 1.212537 1.575909 1.351037
O 2.182865 7.364608 7.533795
O 2.182865 7.030939 3.335165
O 2.255144 5.155698 8.062794
O 2.255144 9.239849 3.864165
O 2.429352 5.809170 5.945679
O 2.429352 8.586378 1.747049
O 3.122775 0.892783 6.110598
O 3.028868 2.527877 7.641011
O 3.122775 3.905733 1.911969
O 3.028868 2.270638 3.442381
O 3.411134 0.423862 8.285247
O 3.411134 4.374653 4.086618
O 4.367078 8.050374 5.366700
O 4.367078 6.345173 1.168071
O 4.804041 4.217156 6.739926
O 4.804041 0.581359 2.541297
O 5.495992 2.652840 5.260577
O 5.495992 2.145676 1.061948
O 5.646189 7.451356 7.148518
O 5.646189 6.944191 2.949888
O 6.338141 9.015672 5.669169
O 6.338141 5.379875 1.470539
O 6.775104 3.251858 7.042395
O 6.775104 1.546658 2.843765
O 7.731047 5.222378 4.123848
O 7.731047 9.173169 -0.074782
O 8.113313 7.326393 4.768084
O 8.019407 5.691299 6.298497
O 8.113313 7.069154 0.569454
O 8.019407 8.704248 2.099867
O 8.712829 1.010654 6.463416
O 8.712829 3.787862 2.264786
O 8.887037 0.357182 4.346301
O 8.887037 4.441333 0.147671
O 8.959317 2.566093 4.875300
O 8.959317 2.232423 0.676671
O 9.929645 8.021122 6.859428
O 9.929645 6.374425 2.660799
O 10.763080 4.765281 5.747666
O 10.763080 0.033235 1.549036
O 11.090849 3.099025 7.231870
O 11.090849 1.699490 3.033240
