13

La -0.000053 1.893910 2.575821
La 5.276659 5.152333 0.340854
La 2.638227 1.922776 0.127289
La 2.638443 5.123220 2.789598
Cu -0.000063 0.000014 0.000055
O 0.000116 2.557305 0.168870
O 0.000011 4.488650 2.747724
O 1.286495 0.000175 3.697018
O 1.286395 7.045785 -0.780429
O 2.638374 2.620408 2.623122
O 2.638253 4.425659 0.293632
O 3.990343 0.000282 3.697105
O 3.990380 7.045892 -0.780420
