46

Li 0.844110 8.833098 6.698203
Li 0.860734 5.935934 6.074941
Li 0.968477 8.829474 0.701589
Li 1.579280 4.347170 3.742905
Li 3.470316 4.589975 1.516592
Li 3.594683 4.593599 5.461763
Li 3.486940 7.487140 0.893330
Li 4.205486 0.127188 8.503079
Fe 0.814581 2.866113 1.226506
Fe 1.889582 4.018931 8.105028
Fe 1.872779 7.264594 3.592359
Fe 3.440787 1.608245 5.986680
Fe 4.498985 6.158479 8.352533
Fe 4.515788 0.455427 2.923417
B 0.869989 2.887724 6.041877
B 0.842644 5.912399 1.255601
B 1.680367 7.237632 8.620724
B 1.843591 1.423007 3.560103
B 3.468851 7.510675 6.015775
B 3.496195 1.586634 0.860266
B 4.469798 3.051351 8.320277
B 4.306574 6.185442 3.439113
O 0.530305 2.987896 9.159159
O 0.405523 5.981205 4.027757
O 0.722354 8.212192 8.750055
O 1.198590 5.951433 8.308186
O 1.133019 2.532827 3.188537
O 1.227121 0.176281 3.479717
O 1.481474 1.656541 6.187732
O 1.544467 7.058944 1.586472
O 1.674506 4.044766 6.011466
O 1.493697 4.676626 1.351704
O 2.152733 7.433761 5.612148
O 2.130321 1.460511 0.845796
O 3.031729 7.441868 8.787931
O 3.156511 1.486462 3.977548
O 3.759225 1.941531 7.948711
O 3.348560 5.210882 3.568444
O 3.853327 4.298077 8.239891
O 3.824796 7.471641 3.126575
O 4.170673 6.364130 6.346646
O 4.107680 2.817816 1.006121
O 4.119903 8.746448 6.111878
O 4.300712 0.429592 0.829855
O 4.756527 3.013847 5.605970
O 4.778939 5.989313 0.430537
