50

Na 0.641514 1.717854 4.031632
Na 2.320049 0.030032 6.687667
Na 2.317281 3.263900 6.730607
Na 2.293534 0.042289 1.260268
Na 2.300730 3.255518 1.268996
Na 6.817189 3.277830 9.346794
Na 6.823541 0.006256 9.352803
Na 6.690474 6.527948 4.131177
Na 8.315035 4.881245 6.619051
Na 8.319236 4.882105 1.499293
Mn 3.235364 4.974221 9.449076
Mn 3.236390 4.951221 4.195699
Mn 5.878997 1.678885 6.478811
Mn 5.882826 1.666609 1.348986
P 3.858140 1.651046 9.040829
P 3.793929 1.630574 3.780061
P 5.281557 4.967852 6.996260
P 5.251031 4.968415 1.692753
C 0.575225 4.975229 9.150466
C 0.596714 4.995057 3.882068
C 8.473346 1.604154 6.844729
C 8.474807 1.600658 1.629915
O 0.677766 1.645162 6.626885
O 0.682249 1.657704 1.524391
O 1.183690 4.967561 10.311357
O 1.215424 4.948356 5.043939
O 1.308191 4.968632 8.075795
O 1.327211 4.940234 2.801090
O 3.006191 0.406516 9.393481
O 3.022942 2.903542 9.406784
O 2.888986 0.412437 4.107494
O 2.936744 2.863622 4.158055
O 4.095444 1.651031 7.469840
O 3.908584 4.949338 6.279752
O 4.045272 1.648120 2.222946
O 3.879256 4.970105 0.973430
O 5.221766 1.644040 9.766787
O 5.064552 5.016217 8.543412
O 5.140278 1.577092 4.511230
O 5.015514 5.006050 3.216502
O 6.156818 3.721319 6.689816
O 6.148524 6.198630 6.589053
O 6.114278 3.739749 1.275281
O 6.134151 6.197405 1.301935
O 7.766025 1.633688 7.917051
O 7.749655 1.520263 2.696470
O 7.798239 1.582628 5.699578
O 7.830580 1.675781 0.484141
O 8.366859 4.952973 9.251015
O 8.401260 5.048964 4.001574
