22

Li 0.736324 2.589792 7.744144
Li 1.891154 3.167207 2.689806
Li 3.392683 3.893808 7.931262
Li 4.547513 4.471223 2.876924
Ti 0.000000 0.000000 0.000000
Mn 0.866951 3.402441 5.185502
Mn 3.513054 4.718492 10.496331
Mn 1.770783 2.342522 0.124737
Mn 4.416886 3.658574 5.435566
Mn 2.641918 1.320959 5.310534
O 0.184025 3.001444 1.142900
O 1.621055 3.719959 9.233118
O 0.874168 2.041848 4.080732
O 2.792957 4.210811 4.215895
O 2.490880 2.850204 6.405173
O 0.893518 4.865855 6.119067
O 4.409668 5.019166 6.540336
O 3.662782 3.341056 1.387950
O 1.710875 5.274533 1.076961
O 5.099811 4.059571 9.478168
O 3.572962 1.786481 9.544107
O 4.390319 2.195160 4.502001
