28

Li 4.766693 -0.004468 0.000238
Li 4.766693 -0.004468 3.050486
Li 2.388625 5.188136 3.047960
Li 2.388625 5.188136 0.002764
Mn 0.133067 7.485025 4.576086
Mn 2.253040 2.296346 4.576086
Mn 2.509609 8.127963 1.525362
Ni 4.675391 2.882467 1.525362
P 0.416200 6.133976 1.525362
P 1.944994 1.003007 1.525362
P 2.816497 9.466815 4.576086
P 4.354494 4.223741 4.576086
O 0.976142 4.680880 1.525362
O 1.067854 6.863637 0.296579
O 1.067854 6.863637 2.754145
O 1.123223 4.222911 4.576086
O 1.279573 9.430784 4.576086
O 1.276097 1.725821 0.299264
O 1.276097 1.725821 2.751460
O 1.390654 9.983918 1.525362
O 3.396552 0.473274 4.576086
O 3.454958 8.738215 3.341482
O 3.454958 8.738215 5.810689
O 3.482275 1.060017 1.525362
O 3.650451 6.196546 1.525362
O 3.731163 3.499155 3.325283
O 3.731163 3.499155 5.826889
O 3.750469 5.659898 4.576086
