49

Li 1.722008 2.121750 6.549492
Li 0.000036 4.474183 1.918717
Li 5.166226 1.890842 8.897896
Li 0.000093 0.000039 14.964190
Li 5.166314 1.890959 21.996254
Li 1.722205 2.121612 12.608291
Li 3.444554 -0.230682 4.829860
Ti 1.722029 2.121727 21.103967
Ti 1.721936 2.121769 0.272278
Ti 1.722117 2.121687 16.466212
Ti 3.444146 -0.230760 14.060289
Ti 3.444321 -0.230785 17.011359
Ti 3.444042 -0.230807 23.384164
Ti 3.444363 -0.230520 2.490480
Nb 1.721652 2.122005 9.634705
Nb 5.166273 -2.582957 4.833889
Nb 5.166046 1.890812 11.957805
Nb 5.166335 1.890909 19.046732
Nb 3.443743 -0.230787 7.353154
O 4.759907 0.607395 3.533867
O 0.047381 2.834231 8.373560
O 0.022019 2.993850 17.753713
O 1.409992 3.501156 10.787336
O 5.054554 -0.894308 1.045710
O 1.997353 -0.901995 1.045577
O 0.309852 1.334353 10.787154
O 1.696719 0.639932 17.753264
O 3.252807 2.806788 8.373542
O 1.716821 0.276306 3.533997
O 3.447902 2.731242 17.753560
O 1.866420 0.723990 8.373428
O 1.698465 0.469334 13.194565
O 3.856045 -1.576065 3.533749
O 1.892325 0.794427 22.604232
O 3.280582 1.103951 1.045897
O 1.399127 3.526973 20.187173
O 3.446956 1.529928 10.787002
O 3.202429 1.096336 15.572996
O 1.754841 -0.675265 6.017747
O 3.481360 1.521875 20.186882
O 2.051585 -0.950082 15.572690
O 3.645234 1.132245 6.017904
O 4.990826 0.507942 13.194482
O 3.156355 2.794153 22.604529
O 0.117480 2.776452 22.604583
O 3.643973 -1.669809 13.194306
O 4.933406 -1.149120 6.017452
O 5.079069 -0.838683 15.572673
O 0.285998 1.316289 20.186771
