16

Li 2.882909 2.887422 0.035400
Li 2.888617 2.902519 2.100663
Li 5.787577 2.864174 3.552311
Li 2.884335 0.011102 1.480593
Cr 5.785439 -0.030154 2.948934
Cr 5.786841 -0.031525 5.009019
Co 5.786511 2.864749 1.489873
Co 2.889898 -0.010424 3.537783
O 1.306029 4.367723 -1.470284
O 4.371285 4.349199 1.987019
O 1.417665 4.477374 0.589335
O 4.367316 4.351961 0.120166
O 1.411801 1.419069 4.034160
O 4.361417 1.293140 3.565728
O 1.408719 1.421072 2.167429
O 4.472648 1.404341 5.623999
