92

Li 0.346214 1.376567 0.462675
Li 8.666680 5.317696 10.099545
Li 8.987748 1.390833 4.786880
Li 0.025147 5.303430 5.649120
Cr 2.351828 3.737827 5.133487
Cr 2.860607 3.907168 0.025292
Cr 4.261589 2.039577 7.744973
Cr 4.340746 5.247311 2.507985
Cr 5.769105 0.663777 5.280013
Cr 6.323407 0.535943 10.398234
Cr 10.993361 3.752092 0.116068
Cr 11.502140 3.921434 5.224263
Cr 12.903123 2.053843 8.003692
Cr 12.982279 5.261576 2.741570
Cr 14.410638 0.678042 10.468652
Cr 14.964941 0.550208 5.350430
P 0.902781 4.080041 2.402144
P 1.220668 3.079239 7.958178
P 3.034526 0.533471 5.032927
P 3.547349 0.637011 0.016599
P 5.112003 3.847197 5.252831
P 5.607940 3.731295 10.290650
P 7.393903 6.180525 2.755166
P 7.764435 0.991446 7.593051
P 9.544314 4.094306 2.847411
P 9.862202 3.093504 7.790487
P 11.676060 0.547736 0.216628
P 12.188883 0.651277 5.232956
P 13.753536 3.861462 10.495834
P 14.249474 3.745561 5.458015
P 16.035437 6.194790 2.494389
P 16.405968 1.005711 8.155614
O 0.390476 2.976199 1.556136
O 0.119893 5.463680 2.061563
O 0.799480 3.939350 3.925953
O 1.062978 3.834147 6.624928
O 1.454681 3.975359 9.155675
O 2.287345 1.967038 7.862899
O 2.143411 5.763936 5.211023
O 2.244898 1.790174 4.760391
O 2.375056 4.458860 1.978767
O 2.662456 5.879851 10.327050
O 2.716743 1.887931 0.288610
O 4.157286 0.279141 3.924263
O 4.015807 0.694057 6.274037
O 4.087065 3.977746 4.026440
O 4.010674 3.526712 6.371206
O 4.637185 0.344665 1.146618
O 4.555540 0.788957 9.294421
O 4.613179 3.925879 1.014319
O 4.494254 3.539732 9.159591
O 5.856505 5.120239 5.571248
O 5.988738 2.639146 5.040507
O 6.253567 1.267615 7.228448
O 6.455243 4.976636 10.084857
O 6.478661 2.508333 10.460988
O 6.271040 5.139859 2.730462
O 7.206192 0.748283 3.887033
O 7.644041 0.346388 1.367236
O 7.829627 0.484586 9.051178
O 8.401437 2.482146 7.576588
O 8.443884 0.211131 6.519653
O 9.032010 2.990464 3.693419
O 8.761426 5.477946 3.187992
O 9.441013 3.953616 1.323602
O 9.704511 3.848412 9.123737
O 10.096214 3.989624 6.592990
O 10.928878 1.981303 7.885766
O 10.784945 5.778202 0.038532
O 10.886431 1.804439 0.489164
O 11.016590 4.473126 3.270788
O 11.303990 5.894116 5.421614
O 11.358276 1.902197 4.960945
O 12.798819 0.293406 1.325292
O 12.657340 0.708322 9.474628
O 12.728598 3.992011 1.223115
O 12.652207 3.540977 9.377458
O 13.278718 0.358931 4.102937
O 13.197073 0.803222 6.454244
O 13.254712 3.940144 4.235236
O 13.135787 3.553998 6.589073
O 14.498039 5.134505 10.177417
O 14.630271 2.653412 0.209048
O 14.895100 1.281880 8.520217
O 15.096776 4.990901 5.663808
O 15.120195 2.522598 5.287677
O 14.912573 5.154125 2.519093
O 15.847725 0.762549 1.362522
O 16.285557 0.360653 3.882319
O 16.471160 0.498851 6.697487
O 17.042970 2.496412 8.172077
O 17.085418 0.225397 9.229012
