32

Li 1.168531 0.991943 0.336464
Li 2.345468 6.116570 1.235817
Li 4.682530 4.132683 1.908744
Li 5.859467 9.257310 2.808097
Mn 1.269643 9.516872 2.671630
Mn 2.244356 4.392246 3.613662
Mn 4.783642 5.857007 -0.469102
Mn 5.758355 0.732381 0.472931
P 0.207431 3.579213 0.993977
P 3.721431 1.545413 2.566257
P 3.306568 8.703840 0.578303
P 6.820567 6.670040 2.150583
O 0.169023 8.003806 3.122919
O 1.014302 3.192386 -0.183470
O 0.000548 9.855446 1.261047
O 1.148410 5.886074 4.201839
O 1.146428 4.435907 1.940851
O 2.365589 0.761448 2.083453
O 2.499697 8.317013 1.755751
O 3.344976 2.879179 3.162373
O 2.367571 9.560534 -0.368571
O 3.514547 5.518434 2.833327
O 3.513451 4.730819 0.311234
O 4.660427 0.688719 3.513132
O 3.683023 7.370074 -0.017813
O 4.528301 1.932240 1.388810
O 4.662409 9.487805 1.061108
O 5.881570 5.813346 1.203709
O 5.879588 4.363179 -1.057279
O 7.027450 0.393807 1.883514
O 6.013697 7.056867 3.328031
O 6.858975 2.245447 0.021647
