28

Li 1.950580 2.421428 8.530166
Li 5.874117 2.153695 9.491571
Li 0.006386 5.082385 4.819729
Li 3.929922 -0.251835 3.731286
Cr 1.005560 3.737047 2.081960
Cr 1.988486 2.395896 4.640511
Cr 1.002732 1.241451 2.063244
Cr 3.914786 2.287914 2.041051
Cr 1.965717 -0.127283 6.724539
Cr 3.892017 -0.272382 9.318259
Cr 4.874943 0.939628 6.756779
Cr 4.877771 -1.556330 6.738055
O 0.983208 3.767480 5.835871
O 0.253526 2.565338 3.278058
O 1.976378 2.437630 1.022916
O 0.002317 5.068207 3.064271
O 5.878186 2.138982 7.736101
O 1.028571 1.165191 5.755744
O 2.830586 3.462350 3.263393
O 2.868597 1.262115 3.229333
O 1.924342 -0.173095 0.995326
O 3.956161 2.236661 5.788230
O 3.049917 0.904706 7.943650
O 3.011905 -1.290525 7.909704
O 3.904125 -0.232239 5.700628
O 4.897295 0.967119 1.034108
O 5.626977 -0.330882 7.950636
O 4.851932 -1.629205 0.954117
