44

Sb 3.342095 5.411203 16.773552
Sb 7.711581 2.630573 11.888506
Sb 1.058581 8.536015 15.860685
Sb 3.999372 7.801754 10.086335
Sb 8.316087 4.901979 4.917682
Sb 1.684378 6.069244 12.096329
Sb 6.314497 -0.705972 14.729974
Sb 4.154314 2.509777 13.880146
Sb 4.617165 5.399654 6.240834
Sb 2.528367 -0.286537 1.442261
Sb 6.908375 1.661583 8.029339
Sb 0.396565 2.869580 15.130860
Sb 4.832092 -0.143478 9.995563
Sb 7.550285 -0.815492 4.176613
Sb 1.092080 5.240779 8.297356
Sb 5.434430 2.363665 3.186802
Sb 1.732164 2.797763 4.521345
S 7.413255 7.741162 16.476465
S 7.925849 4.904604 13.504980
S 6.844529 7.789344 10.162681
S 3.837971 8.089823 17.362487
S 7.273022 5.237967 7.165603
S 7.195696 3.846809 10.063064
S 4.546500 6.463674 11.794566
S 4.360806 5.041787 14.637468
S 6.695441 1.935005 15.383242
S 7.915125 2.170119 4.463497
S 1.375565 7.457116 10.389237
S 4.927575 2.560339 11.716806
S 3.895480 5.229044 8.427429
S 7.391376 0.233242 9.666839
S 0.880040 5.537774 15.700776
S 5.935642 5.028433 3.565538
S 2.093485 5.725668 4.861596
S 4.325149 2.657533 5.414100
S 4.271439 1.291259 8.366508
S 1.586692 3.863154 9.997256
S 1.520871 2.491616 12.927723
S 4.982654 -0.456335 2.757739
S 1.873433 -0.121944 9.883124
S 0.983300 2.649523 6.679953
S 2.931769 2.528602 1.761568
S 1.419805 0.080222 3.639726
S 0.042617 8.713930 3.847681
