84

Ba 2.279329 0.267893 2.835781
Ba 0.527626 5.324971 4.752719
Ba 4.019641 3.760902 4.557603
Ba 6.472877 0.065678 10.712062
Ba 7.545866 2.198610 4.391283
Ba 2.958288 1.642733 10.887374
Ba 11.027947 0.619589 4.236773
Ba 9.275619 5.682358 6.153305
Ba 4.716103 5.131106 12.635842
Ba 1.219349 6.720499 12.799807
Ba 11.717917 1.974518 12.267085
Ba 5.787622 7.265762 6.302163
Ba 8.215969 3.558518 12.443587
Ba 9.971138 7.063885 14.197948
Li 11.653624 6.140264 8.417707
Y 7.000013 1.139106 7.559735
Y 3.497416 2.690635 7.723838
Y 12.234324 3.099475 9.112244
Y 10.520935 -0.486627 7.331398
Y 5.247796 6.195877 9.479415
Y 1.705942 7.764347 9.604878
Y 8.802206 4.650385 9.284283
Cu 12.241514 7.312178 4.932674
Cu 8.745800 0.339246 1.397890
Cu 1.751274 3.497495 1.740401
Cu 5.246449 1.911961 1.571664
Cu 4.137106 -0.297060 8.141797
Cu 4.615848 0.627395 5.379013
Cu 0.641980 1.297839 8.312452
Cu 1.101847 2.191561 5.598360
Cu 9.848553 2.542303 7.000393
Cu 2.850181 5.694740 7.340120
Cu 9.394701 1.614203 9.703278
Cu 5.897052 3.201392 9.889718
Cu 3.503565 6.988772 3.487067
Cu 10.501619 3.834997 3.129507
Cu 6.999389 5.413578 3.324016
Cu 6.349557 4.135811 7.128848
Cu 2.390940 4.774088 10.074637
Cu 11.130946 5.096258 11.516587
Cu 7.640181 6.692789 11.645632
Cu 8.101848 7.609771 8.911673
O 0.223454 0.436365 4.855415
O 2.864769 1.365407 5.598048
O 1.487400 2.972263 3.286670
O 0.254137 0.505550 10.628072
O 8.491921 -0.179425 2.934907
O 6.343482 -0.207682 5.448945
O 2.414457 0.540040 8.095303
O 4.988895 1.398671 3.115435
O 8.534056 -0.083126 8.691456
O 5.458487 2.333857 6.396578
O 8.968139 0.793409 6.217156
O 1.954909 3.885631 6.539417
O 5.039788 1.498026 8.883520
O 1.546353 3.081911 9.048803
O 11.585460 1.722785 6.983581
O 4.568384 4.867211 7.368969
O 2.012527 4.014641 12.322498
O 1.129198 6.417250 7.545085
O 8.055376 3.309421 7.173145
O 6.739446 4.887264 4.867569
O 4.163514 4.030462 9.848941
O 10.243930 3.321806 4.672173
O 7.663588 2.457477 9.666226
O 0.652759 5.611831 10.032557
O 11.166627 0.880723 9.485438
O 9.008584 0.860486 11.981728
O 3.238123 6.471149 5.028923
O 5.507763 2.436133 12.161559
O 10.292570 3.418579 10.469341
O 10.686109 4.217470 7.970359
O 3.722291 7.417804 8.287169
O 3.296659 6.572515 10.783919
O 7.203759 5.831933 8.105545
O 6.790315 5.002807 10.611201
O 10.760814 4.354638 13.724765
O 9.784382 6.803958 8.948112
O 11.977247 6.785906 6.496930
O 7.258302 5.929591 13.904323
O 3.761082 7.508214 14.077693
O 5.915548 7.525054 11.595268
O 9.419774 5.940498 11.426327
O 12.033028 6.899044 12.208631
