22

Mo 4.648526 1.658858 1.435409
Mo 4.642123 -1.008588 5.360179
Mo 1.546991 0.550272 2.112589
Mo 4.643572 1.663307 6.244009
Mo 1.544737 0.555685 6.920600
Mo 1.549176 3.223489 2.986835
O 4.039489 2.818797 7.829243
O 5.597874 -2.316341 -1.221807
O 0.594652 4.529564 9.573939
O 2.153780 -0.606458 0.523948
O 0.559454 1.574923 8.589063
O 5.633660 0.637361 -0.235839
O 3.696095 0.285862 2.246503
O 5.239525 0.512942 4.676566
O 2.528842 -0.455942 5.268408
O 3.664297 2.668213 3.084910
O 0.953744 1.699376 3.676724
O 2.496456 1.927327 6.105570
O 0.784072 4.270381 4.714950
O 5.407748 -2.056192 3.638216
O 3.878121 0.036795 7.053537
O 2.313705 2.177385 1.299566
