28

Li 1.900389 2.420128 8.562069
Li 0.067381 -0.004251 9.517173
Li 0.088691 -0.005952 4.700740
Li 3.870983 -0.260646 3.678578
Fe 3.894711 2.285882 1.856493
Fe 4.894463 0.921296 6.641488
Fe 4.894392 -1.580561 6.690481
Co 1.012725 3.723196 1.941325
Co 1.012725 1.236949 1.990047
Co 2.040835 -0.137461 6.781172
Sb 1.947167 2.417102 4.529994
Sb 3.909831 -0.263316 9.363416
O 1.003382 3.767502 5.618665
O 0.199008 2.534748 3.128390
O 1.898789 2.420480 0.947320
O 0.074788 -0.005120 2.910037
O 0.096833 -0.006419 7.713727
O 1.003406 1.193732 5.669053
O 2.767726 3.522819 3.102434
O 2.767650 1.200855 3.147972
O 1.933406 -0.130056 0.912231
O 3.954714 2.281908 5.465199
O 2.975265 0.921447 7.954728
O 2.975142 -1.322212 7.998859
O 3.888945 -0.261914 5.668343
O 4.939205 0.964174 0.708746
O 5.647641 -0.380390 7.939935
O 4.939194 -1.629435 0.759610
