36

K 2.650123 4.274668 4.870338
K 5.075246 6.270462 -1.232444
K 7.743862 0.679342 1.937201
Nb 0.308399 2.843770 0.229381
Nb 1.359308 -0.032795 2.334142
Nb 5.537508 6.636192 2.652458
Nb 3.010150 0.583277 -0.877628
Nb 7.174543 3.618348 4.073890
Nb 8.237384 4.946365 0.823807
P 2.348141 5.406214 1.408419
P 4.263687 1.236149 3.882560
P 6.166075 2.629281 -0.685836
O 0.206011 8.002652 1.252974
O 8.521366 4.915884 -3.141801
O 1.127892 5.573340 2.404227
O 0.536934 1.573312 1.784689
O 1.305771 7.944719 3.633414
O 2.486826 6.559547 0.340040
O 1.992810 4.082979 0.836957
O 3.802252 5.388645 2.054073
O 1.757584 2.176874 -0.778039
O 3.554286 1.543830 5.135873
O 3.050265 1.187815 2.955693
O 2.687289 -0.135388 0.788789
O 4.254202 -0.838845 6.518161
O 5.819530 5.132519 3.788002
O 5.472772 2.351072 3.451265
O 4.978091 -0.121590 3.966580
O 6.757791 6.090512 1.190984
O 4.712091 1.807553 -0.276898
O 6.514043 3.716826 0.185026
O 6.031208 3.354994 -1.996576
O 7.981892 3.694730 2.430534
O 7.390312 1.642461 -0.635242
O 7.214607 -0.495117 5.650214
O 8.304233 2.098072 -3.170841
