18

Li 1.094930 2.458511 3.406720
Li 2.675298 -0.575201 2.736885
Li 4.255666 1.477623 3.750791
Fe 0.000000 2.543268 0.841870
Fe 1.664897 -0.205878 0.166938
Fe 3.685699 4.142011 6.990573
Sn 0.642269 -0.078995 5.093471
Sn 4.708326 4.015129 2.064040
O 0.238690 1.112826 6.933238
O 1.720131 3.650363 7.830399
O 0.560245 3.807494 5.056645
O 1.057026 1.137650 1.697373
O 2.646811 0.367014 4.426706
O 2.703784 3.569119 2.730805
O 4.293569 2.798483 5.460138
O 4.790351 0.128639 2.100866
O 3.630465 0.285770 -0.672888
O 5.111906 2.823308 0.224273
