22

Li 1.791568 3.256888 1.194602
Li 7.056294 0.028064 4.316712
Cr 2.900123 4.888121 4.243688
Cr 5.947713 1.659134 1.266491
As 3.787948 1.613900 3.856311
As 5.059879 4.843599 1.654349
C 0.562506 4.819435 3.782971
C 8.284631 1.590566 1.727942
O 0.598057 1.799653 1.698543
O 1.030604 4.813791 5.002290
O 1.587828 4.630842 2.885032
O 2.741842 0.281910 4.231989
O 2.814528 2.908480 4.417519
O 3.556867 4.752198 0.861120
O 4.159764 1.745077 2.181731
O 4.688453 4.974103 3.329184
O 5.291128 1.523125 4.649183
O 6.033706 6.138162 1.093570
O 6.106410 3.511834 1.278926
O 7.259823 1.402164 2.625751
O 7.817347 1.584959 0.508639
O 8.249974 5.029589 3.812497
