15

Li 1.485118 4.114791 2.025257
Li 0.713369 4.570547 7.118054
Li 0.057648 1.647491 2.207414
Mn 1.500598 2.419416 9.768841
Mn 0.702070 1.275837 4.945207
Co 2.154601 3.728193 4.655495
Co 0.014767 4.968447 -0.144850
O 2.871467 3.266537 0.768411
O 2.194880 0.347642 5.885633
O 2.104185 2.059418 3.701806
O 1.432324 4.170838 8.812670
O 1.507495 0.754013 0.985107
O 0.715791 2.989568 5.796943
O 0.667962 4.602337 3.747715
O 0.092303 1.534324 8.979535
