20

Li 1.553357 6.385584 6.113531
Li 4.365603 9.567394 11.437695
Li 4.374055 14.195110 14.608585
Nb 2.829218 7.846995 8.460119
Nb 5.506897 10.833201 13.673558
Nb 2.719288 12.320609 11.511292
Nb 0.044042 0.095185 4.345381
Zn 1.570384 11.021285 9.260299
O 0.634310 8.283191 9.009094
O 1.269899 7.286500 8.028944
O 3.446490 10.201900 11.906630
O 4.047884 12.700156 11.646184
O 2.021519 9.736833 7.846230
O 0.617323 3.659404 5.841325
O 4.818394 11.859523 10.774425
O 1.254443 2.579799 4.855043
O 3.368449 5.433797 8.672507
O 4.061019 8.049745 8.509129
O 2.020403 5.097563 4.689423
O 4.890607 7.264262 7.673330
