40

Li 0.049463 8.885744 2.589382
Li 3.618275 3.889840 2.462980
Li 3.717201 6.101966 7.641744
Li 7.286012 1.106063 7.515342
Fe 0.444823 3.536730 3.409754
Fe 3.222915 8.532633 1.642608
Fe 4.112561 1.459174 8.462116
Fe 6.890652 6.455077 6.694970
C 1.872057 1.108691 2.740978
C 1.795680 6.104594 2.311384
C 1.947026 4.906577 5.559718
C 1.720712 9.902480 7.163442
C 5.614764 0.089327 2.941282
C 5.388450 5.085230 4.545006
C 5.539795 3.887213 7.793340
C 5.463418 8.883116 7.363747
O 0.858361 1.599428 3.397470
O 1.683572 4.823485 2.373547
O 0.972669 6.926251 2.859589
O 2.695068 1.930347 2.192773
O 1.984165 9.819398 2.678815
O 0.808003 9.913621 6.266876
O 2.809377 6.595332 1.654892
O 1.125174 5.953728 5.337661
O 1.774774 3.860594 4.815000
O 1.892963 8.856498 7.908160
O 2.542564 0.957825 7.385499
O 4.475740 5.074089 3.648440
O 2.859735 4.917718 6.456284
O 4.792912 9.033982 2.719225
O 5.442512 1.135309 2.196564
O 5.560701 6.131213 5.289724
O 6.210302 4.038079 4.767063
O 4.526098 3.396485 8.449832
O 6.527473 0.078186 3.837848
O 5.351310 0.172419 7.425909
O 4.640407 8.061460 7.911951
O 6.362806 3.065556 7.245135
O 5.651903 5.168312 7.731177
O 6.477115 8.392378 6.707254
