36

Mn 0.014650 0.019957 0.023448
Mn 4.283470 5.835052 6.855823
Cr 7.348162 10.009853 11.760954
Ni 1.226896 1.671308 1.963683
Ni 3.063262 4.172853 4.902843
Ni 5.505708 7.500015 8.812051
P 0.370097 5.777709 5.254709
P 3.926919 2.251091 7.318568
P 6.424174 6.575877 4.586309
P 2.136028 5.097600 9.113234
P 4.647694 9.411138 6.387469
P 8.183478 5.879960 8.454748
O 0.933767 2.775077 4.841089
O 2.659309 5.139511 3.336744
O 0.486496 7.036874 4.321157
O 4.400760 2.974816 4.616539
O 8.539481 10.302347 10.557227
O 2.060712 5.422969 5.644186
O 2.240979 1.524432 7.658836
O 3.865483 3.693569 6.654494
O 1.591068 3.683275 8.686550
O 5.063686 5.854157 5.290954
O 0.736983 5.908999 8.770428
O 3.331311 8.996177 5.368992
O 5.290378 10.036898 10.815782
O 7.804073 5.785035 4.876065
O 3.490745 5.900081 8.407873
O 7.012230 8.052375 11.985378
O 4.805098 7.988877 7.085064
O 6.368029 10.098012 6.029679
O 6.461960 6.214495 8.127369
O 8.449335 5.535834 7.346287
O 4.193196 8.707989 9.065877
O 8.002012 4.572160 9.379139
O 5.856189 6.528857 10.356850
O 7.632523 8.849896 8.877696
