40

Li 0.245296 0.262783 0.209138
Li 6.440911 4.340714 6.083153
Li 4.127650 5.832168 6.779543
Li 2.561435 7.699943 7.950197
Li 5.565273 5.004555 9.523281
Li 7.309071 8.443748 7.336453
V 7.332662 10.021725 11.814337
Ni 1.231762 1.712514 1.983237
Ni 3.079158 4.241930 4.941964
Ni 5.556683 7.619347 8.962409
P 0.390389 5.863890 5.253503
P 3.890031 2.231232 7.364984
P 6.446314 6.567600 4.601432
P 2.087360 5.145295 9.220498
P 4.705393 9.589747 6.459403
P 8.240438 5.857342 8.510820
O 1.172139 2.533962 4.867037
O 2.297158 5.121853 3.356551
O 0.410869 7.182201 4.415481
O 4.752496 3.236873 4.599708
O 2.006034 5.474589 5.668378
O 8.437028 10.291896 10.622450
O 2.290076 1.679474 7.778616
O 4.152809 3.689944 6.716671
O 5.108395 5.909626 5.305109
O 1.600291 3.726045 8.812903
O 0.768482 6.020589 8.670843
O 3.271656 1.667458 3.045966
O 5.358990 9.976414 10.910428
O 7.797828 5.790273 4.984712
O 7.064223 8.134284 12.011383
O 3.580546 5.943916 8.658632
O 4.787546 8.209509 7.244232
O 6.402372 9.979595 6.015270
O 8.314346 5.538160 7.336580
O 6.677540 6.412443 8.305094
O 4.084975 8.728515 9.161429
O 7.801421 4.466647 9.344010
O 5.917725 6.537255 10.462207
O 7.670105 8.959531 8.898679
