73

Ba 1.465278 0.890714 5.836199
Ba 1.422466 4.078149 12.827047
Ba 4.419324 6.108586 1.477512
Ba 4.368627 9.151786 8.487949
Li 0.054370 5.068787 6.785151
Li 1.455155 3.932730 4.844563
Li 2.697029 4.703387 6.956971
Li 1.450509 0.795374 13.661905
Li 4.269940 6.022991 8.041789
Li 4.393044 9.318639 0.617992
Ti 5.821743 8.434427 11.836621
Ti 5.855639 1.547222 2.466666
Ti 5.817759 3.360861 9.440800
Ti 1.499331 8.898009 2.529610
Ti 1.443485 0.667942 9.469246
Ti 1.414112 4.261026 2.202181
Ti 1.456555 7.448623 14.240175
Ti 1.393374 7.640206 7.039305
Ti 1.398172 6.143088 9.548098
Ti 2.906999 3.361248 9.518864
Ti 2.961111 1.532762 2.526836
Ti 2.884375 8.430277 11.803132
Ti 2.863777 6.636778 4.714748
Ti 4.335774 2.314779 6.922949
Ti 4.480818 4.121522 4.606626
Ti 4.357081 5.776016 11.815890
Ti 4.384462 1.122113 11.837166
Ti 4.352242 2.756542 14.187800
Ti 4.522130 9.079537 4.856621
O 0.018711 4.734014 3.483754
O 5.842282 0.033893 10.613666
O 0.072817 3.249404 1.204838
O 5.848755 1.782986 8.325345
O 0.193543 8.280283 1.257653
O 0.116291 6.781028 8.274323
O 1.479033 0.739651 1.474047
O 1.435008 4.348458 8.525573
O 1.482501 2.490264 3.398050
O 1.444686 5.701152 1.020939
O 1.586103 7.485550 3.621133
O 1.466889 9.430590 8.263484
O 1.437158 9.041742 13.013387
O 1.426051 2.515209 10.461139
O 1.543865 6.031440 6.020831
O 1.403690 7.634254 10.739936
O 2.758892 8.279116 1.211897
O 2.669789 6.880636 8.400863
O 2.924316 3.312181 1.262630
O 2.893057 1.775831 8.342296
O 2.886191 0.028723 10.615917
O 2.880174 4.967361 3.602290
O 2.928147 10.043038 3.642726
O 2.899963 5.051368 10.670986
O 2.945007 8.306309 5.965511
O 2.913560 6.793682 12.958053
O 3.055827 3.155865 5.842360
O 3.093847 1.830376 13.011074
O 4.219712 5.584477 5.793293
O 4.348082 0.687198 6.102335
O 4.400847 1.056324 1.263434
O 4.412200 2.384096 3.492610
O 4.372001 2.603687 10.580313
O 4.329043 4.054200 8.267450
O 4.379541 4.390999 13.215757
O 4.309067 7.585181 3.861507
O 4.360080 7.549577 10.834280
O 4.350637 9.366353 12.794236
O 5.691826 3.274866 5.878788
O 5.651873 1.804367 12.995205
O 5.805369 6.809975 12.982849
O 0.000486 8.530749 6.074100
O 5.798767 5.065486 10.649670
O -0.001880 10.017009 3.645476
