56

Li 0.029529 0.012360 0.008346
Li 2.064105 2.092931 2.081247
Li 2.105886 6.318134 6.256980
Li 4.178985 8.360323 4.184023
Li 4.202978 4.186991 8.358769
Li 6.265190 2.132379 6.311786
Li 6.289183 6.291744 2.123124
Li 8.362283 4.226285 4.172954
Mn 1.008001 1.040829 5.252558
Mn 1.046817 3.178289 7.285739
Mn 1.085633 5.219376 1.041228
Mn 3.135761 3.151965 5.229263
Mn 3.085103 1.002812 7.335307
Mn 3.159117 5.255360 3.093852
Mn 3.130761 7.300370 1.012740
Mn 5.200075 3.125551 3.148068
Mn 5.234084 1.061376 1.066900
Mn 5.234084 5.308651 5.178391
Mn 5.268093 7.347049 7.353950
Mn 7.337407 1.092470 3.202282
Mn 7.383065 3.167590 1.117715
Mn 7.309051 7.393373 5.224012
Mn 7.332407 5.265713 7.335249
Ni 1.046817 7.331519 3.117202
O 0.883614 1.039693 3.331639
O 0.855006 7.494015 5.199131
O 0.949597 5.132911 7.428584
O 1.067385 3.281614 0.843511
O 1.026249 1.245702 7.189551
O 1.144037 3.028224 5.331686
O 1.238627 5.248973 2.962399
O 1.210020 7.140311 1.035273
O 2.920552 0.984411 5.400670
O 2.979835 3.115113 7.185934
O 3.049419 5.336298 1.129388
O 3.130083 7.175981 2.933661
O 3.299960 5.319340 5.006661
O 3.245082 3.268781 3.237539
O 3.067307 0.838197 0.895526
O 3.335569 7.319371 7.450165
O 5.092898 3.195444 5.080406
O 5.096825 5.057682 3.119985
O 5.117670 7.443715 0.933584
O 5.197806 0.905318 7.484652
O 5.270363 3.018633 1.215730
O 5.350498 1.171124 3.058621
O 5.371343 7.367996 5.421756
O 5.375270 5.414438 7.291196
O 7.132599 3.029411 3.176126
O 7.400869 1.233545 1.289471
O 7.223086 7.257022 7.211080
O 7.168208 5.480317 5.167095
O 7.338085 7.546473 3.302839
O 7.418749 0.983072 5.166746
O 7.488333 3.309163 7.379328
O 7.547616 5.102307 1.128982
