20

Li 2.009103 4.031109 5.298949
Li 0.143644 3.067513 1.501749
Li 1.376200 1.588585 4.423734
Li 3.084832 2.471172 0.364967
Li 2.333856 0.327829 7.105914
Li 4.042487 1.210416 3.047147
Li 5.275044 -0.268512 5.969132
Li 3.409585 -1.232107 2.171932
V 4.546328 2.348387 5.567863
V 0.872360 0.450614 1.903018
O 3.137035 2.548005 4.397220
O 1.269588 1.583382 0.600166
O 0.744582 0.384611 5.846092
O 4.674106 2.414390 1.624790
O 4.149100 1.215619 6.870715
O 2.281652 0.250996 3.073661
F 0.137228 3.104571 5.557106
F 1.971470 4.052041 1.489146
F 3.447217 -1.253040 5.981736
F 5.281459 -0.305570 1.913775
