16

Li 0.000000 2.785582 3.267318
Li 0.000000 0.000000 1.239703
Li 5.098250 7.055557 10.086418
Li 5.098250 4.269975 8.058802
Ti 0.000000 0.000000 0.000000
Ni 0.000000 2.785582 2.027616
Ni 5.098250 7.055557 8.846715
Ni 5.098250 4.269975 6.819099
O 0.000000 2.866664 2.695605
O 10.196499 11.244449 17.477231
O 0.000000 0.000000 0.652493
O 5.246650 7.260930 10.902491
O 10.196499 14.111113 19.520343
O 4.949850 6.850183 9.270345
O 5.246650 4.394265 7.626559
O 4.949850 9.716848 12.546277
