13

Li 1.554200 6.050283 0.939728
Mn 1.958402 2.319636 2.323372
Mn 2.486399 0.003086 4.928303
Mn 0.520875 5.318224 3.718560
Mn 1.054225 2.992851 6.325784
O 0.450436 2.120793 0.645937
O 1.369020 1.366404 3.461381
O 0.583111 -0.038283 4.860112
O 0.544549 4.040024 2.304414
O 2.468467 1.278211 6.342663
O 2.421771 5.364364 3.785434
O 1.639707 3.961502 5.195967
O 2.560000 3.189024 8.003536
