20

Li 1.038073 4.456357 0.409063
Li 2.008815 0.979474 4.186005
Li 2.535013 1.913645 1.497727
Li 3.061211 2.847817 -1.190551
Li 4.031953 -0.629066 2.586391
Fe 0.485516 3.499785 3.179810
Fe 4.584510 0.327506 -0.184356
Cu 0.000000 2.662344 -1.119217
Cu 3.554169 3.692281 3.090978
Cu 1.515857 0.135009 -0.095524
O 0.271393 0.149063 5.814045
O 1.772471 3.037989 4.419356
O 0.683029 1.477801 2.872953
O 1.092479 2.495579 0.155573
O 2.306497 4.040342 1.919825
O 2.763529 -0.213051 1.075629
O 3.977547 1.331712 2.839880
O 4.386997 2.349489 0.122501
O 3.297555 0.789302 -1.423902
O 4.798633 3.678228 -2.818591
