20

Li 1.592013 11.276407 9.652205
Li 1.739421 6.752753 6.541250
Li 4.498990 5.311121 8.665596
Li 4.452585 9.853785 11.889442
Nb 5.682123 11.368677 9.933506
Te 2.812770 3.401063 5.558231
Te 2.954425 8.162525 8.962717
W 0.006677 9.410486 6.548668
O 2.123374 5.366506 5.004516
O 1.178201 2.676607 4.949078
O 0.355052 3.336361 5.711193
O 4.989203 7.758555 8.083269
O 2.135541 10.491713 8.262911
O 4.207624 8.273106 8.832281
O 1.477036 7.628497 8.517459
O 3.508204 5.582681 9.038316
O 0.675513 8.478776 9.324360
O 5.091049 12.484976 11.460757
O 4.369388 13.174874 12.277736
O 3.572193 10.634669 12.410009
