33

Co 3.188768 4.420102 5.192004
Co 5.768299 7.995713 9.392041
Co 7.624209 10.568277 12.413863
S 0.358260 5.752509 5.429233
S 4.178458 2.608785 7.606995
S 6.665994 7.167315 5.204213
S 2.246972 5.268440 9.387310
S 4.831803 9.853648 6.978249
S 8.619459 6.637977 9.194566
O 1.001930 2.781319 4.920276
O 2.673096 5.301808 3.619558
O 0.068053 7.083971 4.883613
O 4.589095 3.372164 4.915945
O 0.205144 5.532362 6.588308
O 2.092044 5.704106 5.497668
O 3.495690 3.675956 6.802839
O 3.001603 1.716289 8.264368
O 5.457458 5.930202 5.683459
O 0.466558 5.329459 8.899570
O 2.507883 4.060902 9.083512
O 3.209482 8.992242 6.297092
O 5.837715 3.398604 8.352361
O 6.503391 8.459985 5.487343
O 8.456479 7.176660 5.619062
O 3.441044 6.558437 8.907548
O 6.086422 10.680491 6.333028
O 5.587636 8.811684 7.806132
O 6.867444 6.664247 9.168652
O 8.662152 6.878986 8.032364
O 4.508309 9.160314 9.645463
O 8.779273 5.242811 9.731630
O 6.137383 7.149894 10.961583
O 8.002027 9.538277 9.755479
