28

Li 0.005678 3.028562 7.956782
Li 5.586368 5.725546 1.476786
Li 1.789000 4.320110 2.808809
Li 0.148491 1.490486 2.773982
Li 2.162571 4.051408 6.833861
Li 1.868919 2.609547 4.368177
Li 3.637140 5.134580 9.743927
Li 1.945445 2.582968 9.739663
Li 3.842089 5.054066 4.372173
Li 3.432186 3.568576 1.459990
Li 1.625777 0.925714 8.141614
Li 3.948430 3.493644 8.178772
Li 3.422222 1.680727 6.845936
Li 3.472503 1.711262 2.579764
Cr 5.562203 2.771139 5.338328
Cr 0.051159 4.869417 10.711609
O 5.579416 6.164190 10.214572
O 1.660796 4.284240 4.846452
O 0.092610 1.431863 4.792505
O 1.818268 2.658279 2.415662
O 3.562850 5.103305 7.793128
O 5.485141 7.542693 1.727592
O 5.569038 7.523773 7.099973
O 2.023412 2.579516 7.787733
O 3.850488 4.994031 2.420340
O 1.585248 0.861310 10.141765
O 3.991843 3.408545 10.213787
O 3.942054 6.785024 4.848170
