24

V 3.493483 4.915602 8.511960
V 3.612195 4.837805 1.948343
V 1.839533 2.604003 10.667669
V 1.715430 2.345756 4.339428
V 0.017478 0.010363 6.448629
V 5.262960 2.680277 0.173936
O 4.735141 4.015491 1.151237
O 2.712247 3.856008 9.974242
O 1.063830 1.428710 5.602224
F 4.577961 6.378556 1.307777
F 4.927868 5.002234 3.585749
F 4.229091 5.910717 6.972169
F 3.863559 3.521436 7.504249
F 3.852203 2.527356 5.021459
F 2.090470 4.892433 0.422589
F 3.150631 2.530599 12.309970
F 2.422204 3.469050 2.802705
F 1.406324 4.866548 7.669566
F 3.152115 1.576752 9.855635
F 1.406366 3.815544 5.201232
F 2.199153 5.831336 2.827607
F 0.380073 3.377217 11.631064
F 0.330033 2.366487 9.145716
F 0.734955 1.083819 11.423059
