28

Li 0.002064 10.174935 5.972346
Li 0.002064 10.174935 2.986505
Li 2.362300 5.126023 2.989186
Li 2.362300 5.126023 5.969665
Mn 4.617659 2.857677 1.493142
Ni 0.092556 7.397757 4.479426
Ni 2.277983 2.268424 4.479426
Ni 2.466040 7.923420 1.493142
P 0.414826 6.100749 1.493142
P 1.977077 0.917252 1.493142
P 2.766259 9.234556 4.479426
P 4.315115 4.162026 4.479426
O 0.987982 4.662664 1.493142
O 1.070040 6.815774 0.255692
O 1.070040 6.815774 2.730592
O 1.111514 4.062398 4.479426
O 1.233877 9.170623 4.479426
O 1.332953 1.643450 0.258337
O 1.332953 1.643450 2.727946
O 1.395696 9.666502 1.493142
O 3.321981 0.494069 4.479426
O 3.434793 8.516020 3.249351
O 3.434793 8.516020 5.709500
O 3.505889 0.958884 1.493142
O 3.615264 6.139816 1.493142
O 3.631543 3.443769 3.263835
O 3.631543 3.443769 5.695016
O 3.788225 5.620736 4.479426
