56

Li 0.002628 8.350223 -0.076827
Li 2.084859 2.080823 2.072462
Li 2.102878 6.273591 6.198144
Li 4.150789 0.009447 4.171080
Li 4.174456 4.183893 8.280443
Li 6.254785 2.098486 6.226646
Li 6.269859 6.254789 2.008494
Li 8.327239 4.159137 4.117852
Mn 1.043163 7.302603 3.056678
Mn 3.130466 1.050738 7.284909
Mn 5.210795 5.217318 5.152908
Mn 7.305923 3.131740 1.011540
Cr 1.033812 1.037970 5.205545
Cr 1.044014 3.120131 7.278227
Cr 1.052482 5.214489 0.991822
Cr 3.140018 3.127869 5.183824
Cr 3.125603 5.217137 3.081201
Cr 3.108577 7.318728 0.962367
Cr 5.204305 3.125800 3.079453
Cr 5.213632 1.069197 1.016730
Cr 5.216785 7.316706 7.212606
Cr 7.319429 1.050584 3.096744
Cr 7.299541 7.297455 5.129262
Cr 7.283850 5.205213 7.242161
O 0.992719 0.892628 3.243646
O 0.972431 7.415376 5.003377
O 0.965498 5.138473 7.404377
O 1.180291 1.107121 7.169557
O 0.904192 3.241435 0.953257
O 1.126952 2.977781 5.272014
O 1.102125 5.352603 2.952068
O 1.100807 7.188171 1.113588
O 2.989243 1.121993 5.338355
O 3.044209 2.980728 7.190391
O 2.961497 5.312049 1.066762
O 3.280099 5.131435 5.078977
O 2.976304 7.222807 2.965310
O 3.276770 3.215293 3.179858
O 3.212144 0.970425 0.881413
O 3.269579 7.458576 7.279550
O 5.158382 3.271181 5.042425
O 5.144125 5.096627 3.199648
O 5.132763 7.411663 0.793063
O 5.352886 3.089822 1.130204
O 5.071883 0.951416 7.348119
O 5.302141 1.205346 3.046615
O 5.272160 7.170812 5.258041
O 5.280986 5.327866 7.090643
O 7.183962 3.050211 2.949540
O 7.211048 1.198112 1.099531
O 7.122705 7.210627 7.150528
O 7.450659 7.395585 3.132380
O 7.144253 5.299057 5.239717
O 7.474133 0.950270 5.113830
O 7.387793 3.209220 7.411702
O 7.434291 5.076446 0.916091
