36

Li 2.909030 0.000000 5.914875
Li 1.454477 0.000000 11.829727
Li 1.454509 0.055704 3.356940
Li 1.454512 4.663377 9.271815
Li 0.000000 4.719100 0.000000
Li 1.454573 4.719100 5.914911
Li 1.454498 4.774823 2.557935
Li 1.454506 9.382486 8.472787
Mn 2.908987 2.295134 1.341009
Mn 0.000044 2.423966 7.255884
Mn 0.000044 7.014234 4.573867
Mn 2.908987 7.143065 10.488742
C 2.909027 2.253172 10.198132
C 0.000003 2.465928 4.283257
C 0.000003 6.972272 7.546494
C 2.909027 7.185028 1.631618
O 1.454506 1.105968 1.698859
O 2.909024 1.208193 4.298848
O 1.454524 1.223153 6.863905
O 2.909019 1.517625 11.292952
O 2.909027 1.561909 9.081699
O 0.000003 3.157191 3.166824
O 0.000012 3.201475 5.378077
O 1.454506 3.495947 0.949030
O 0.000006 3.510906 10.213724
O 1.454524 3.613132 7.613734
O 1.454524 5.825068 4.216017
O 0.000006 5.927293 1.616027
O 1.454506 5.942253 10.880720
O 0.000012 6.236725 6.451674
O 0.000003 6.281009 8.662926
O 2.909027 7.876291 2.748051
O 2.909019 7.920575 0.536799
O 1.454524 8.215047 4.965845
O 2.909024 8.230006 7.530902
O 1.454506 8.332231 10.130892
