28

Li 1.994444 2.490931 8.858571
Li 6.054115 2.226242 9.436933
Li 0.015044 -0.001065 4.827725
Li 4.045706 -0.264234 3.903368
Mn 4.027971 2.358110 1.874524
Mn 5.056265 0.939947 6.791489
Mn 5.055974 -1.599520 6.843848
Fe 1.016500 3.865669 1.975954
Fe 1.015724 1.244134 2.030077
Fe 2.101041 -0.136951 6.991897
Te 2.046624 2.487597 4.627630
Te 4.033674 -0.263253 9.565115
O 1.099264 3.811595 5.679214
O 0.249226 2.605034 3.396286
O 2.053613 2.486824 0.991601
O 6.007159 2.229318 2.711528
O 0.014868 -0.000773 7.838149
O 1.098767 1.286949 5.731829
O 2.878691 3.593033 3.285501
O 2.877303 1.271676 3.334310
O 1.952496 -0.127354 0.955135
O 4.002526 2.359639 5.577803
O 3.060190 0.953161 8.244988
O 3.060457 -1.352030 8.292773
O 4.010624 -0.261862 5.878007
O 5.108748 0.996608 0.717342
O 5.809319 -0.378927 8.219871
O 5.108924 -1.661836 0.771665
