19

Li 5.498634 4.203097 1.171225
Fe 0.026362 7.685875 0.009415
Fe 3.266717 3.780163 3.625508
C 0.842961 2.025199 3.852461
C 2.541921 5.824104 -0.144316
C 4.277786 1.765679 2.764830
C 5.872708 5.496531 -1.179392
O 0.560730 0.976681 3.198674
O 1.184011 3.166682 3.374449
O 2.619874 5.666904 3.432077
O 0.718397 1.899242 0.264837
O 2.079048 6.898088 0.306346
O 2.968497 4.781806 0.510195
O 4.104035 2.868010 2.110761
O 4.722734 0.668430 2.352171
O 6.004392 5.575875 2.394572
O 3.915463 1.891401 -0.864619
O 5.413891 4.426724 -0.665148
O 6.227054 6.553751 -0.563538
