19

Li 1.501448 2.918418 1.861815
V 4.289626 3.894446 4.057273
V 8.554325 7.449713 4.838487
C 6.786609 4.867419 4.289532
C 6.109553 1.635353 3.375942
C 2.429070 5.988815 3.125799
C 1.731525 2.575360 4.324843
O 8.155556 5.414869 4.468047
O 7.192667 1.511189 4.041971
O 5.808720 4.522299 5.129717
O 6.424982 4.655568 3.294941
O 6.490719 1.443031 2.334148
O 4.857199 1.923198 3.756588
O 3.626696 5.787439 3.538290
O 2.091395 5.646626 7.015201
O 2.441029 3.064454 5.158408
O 2.313779 2.962085 3.322838
O 1.359970 0.308470 1.628546
O 0.476241 1.757360 4.486857
