76

Fe 2.234740 1.681194 9.417563
Fe 3.943746 13.162211 0.727917
Fe 3.994088 9.102436 6.612655
Fe 2.234740 5.740509 9.417563
Fe 5.273641 5.740969 1.539920
Fe 2.184398 1.680734 3.532815
Fe 5.323983 5.740509 5.800642
Fe 5.273641 1.680734 1.539920
Fe 5.323983 1.681194 5.800642
Fe 0.904839 9.102436 8.605550
Fe 3.943746 9.102896 0.727917
Fe 0.904839 13.162671 8.605550
Fe 3.994088 13.162671 6.612655
Fe 0.854503 9.102896 4.344818
Fe 2.184398 5.740969 3.532815
Fe 0.854503 13.162211 4.344818
P 3.962875 8.465387 3.727598
P 6.152790 3.710851 4.044005
P 5.304854 1.043684 8.800333
P 3.962875 13.799720 3.727598
P 0.873632 8.465387 1.345137
P 3.063547 3.710851 1.028730
P 0.025696 11.132554 6.101465
P 5.304854 6.378018 8.800333
P 2.215611 1.043684 6.417872
P 0.873632 13.799720 1.345137
P 3.114939 11.132554 9.116740
P 2.215611 6.378018 6.417872
O 1.520359 3.710851 3.862959
O 0.474168 0.280600 2.042699
O 1.267263 12.806845 2.438078
O 4.658127 11.132554 6.282511
O 5.574724 2.380422 3.511865
O 2.615075 14.562805 7.115434
O 5.932978 13.279578 0.374926
O 1.568884 11.132554 8.935694
O 1.821980 2.036560 7.510813
O 2.615075 7.702302 7.115434
O 0.603762 9.802124 6.633605
O 2.081272 13.982012 0.328632
O 0.245508 5.857875 9.770544
O 4.609602 3.710851 1.209776
O 0.401873 11.132554 4.580781
O 4.911223 2.036560 7.707392
O 4.097214 0.861392 9.816838
O 5.776613 3.710851 5.564689
O 4.097214 6.560310 9.816838
O 2.843735 8.985529 4.697809
O 0.474168 7.141103 2.042699
O 3.563411 0.280600 3.030036
O 2.485481 5.041280 1.560870
O 2.687370 3.710851 9.653516
O 3.693005 9.802124 8.584600
O 5.704318 14.562805 8.102771
O 0.603762 12.462983 6.633605
O 2.485481 2.380422 1.560870
O 4.911223 5.385143 7.707392
O 1.821980 5.385143 7.510813
O 3.334751 1.563827 5.447661
O 3.693005 12.462983 8.584600
O 4.356506 9.458262 2.634657
O 2.843735 13.279578 4.697809
O 0.245508 1.563827 9.770544
O 1.267263 9.458262 2.438078
O 3.563411 7.141103 3.030036
O 4.356506 12.806845 2.634657
O 5.574724 5.041280 3.511865
O 5.704318 7.702302 8.102771
O 1.007971 0.861392 5.401367
O 3.334751 5.857875 5.447661
O 3.491116 11.132554 0.491954
O 1.007971 6.560310 5.401367
O 5.170515 8.283095 4.744103
O 2.081272 8.283095 0.328632
O 5.170515 13.982012 4.744103
O 5.932978 8.985529 0.374926
