28

Li 1.999050 2.474256 8.713527
Li 0.005476 0.002168 9.603663
Li 0.006732 -0.001931 4.757982
Li 3.984742 -0.247317 3.810148
V 3.946497 2.359855 2.017696
V 4.983833 0.945378 6.840720
V 4.947527 -1.572195 6.842179
Cr 1.023704 3.811438 2.035785
Cr 1.023943 1.266017 2.049199
Cr 2.028360 -0.125060 6.881001
Sb 1.995794 2.478909 4.681994
Sb 3.986286 -0.236243 9.520091
O 1.021843 3.843939 5.722491
O 0.228310 2.588943 3.301858
O 2.002413 2.476972 1.009756
O 0.008498 0.001048 2.950067
O 5.980453 2.230192 7.675417
O 0.980067 1.240548 5.742125
O 2.865177 3.585188 3.280184
O 2.862424 1.262674 3.296432
O 1.987039 -0.124163 0.896112
O 4.003413 2.335670 5.654167
O 3.063985 0.948130 8.134672
O 3.118848 -1.351020 8.130537
O 3.974114 -0.231514 5.815411
O 5.000517 1.000899 0.819169
O 5.764715 -0.326254 8.122129
O 5.001205 -1.610199 0.827008
