46

Li 2.352270 4.637980 7.628196
Li 2.352270 7.662897 2.332816
Li 5.651071 0.537688 4.614771
Li 5.651071 3.562605 -0.680609
Sn 0.000000 0.000000 5.295380
Sn 1.697340 5.104601 4.565463
Sn 0.000000 4.100292 0.000000
Sn 1.697340 7.196275 -0.729917
Sn 6.306000 1.004309 7.677504
Sn 6.306000 3.095983 2.382124
P 1.092616 1.701867 8.075812
P 1.092616 2.398425 2.780432
P 3.164729 7.858514 6.759068
P 4.838612 3.758221 5.483899
P 3.164729 4.442363 1.463688
P 4.838612 0.342071 0.188519
P 6.910724 5.802160 4.167155
P 6.910724 6.498717 -1.128225
O 7.951335 5.741131 5.129570
O 0.596681 0.784181 9.253907
O 1.404338 3.112679 8.501833
O 7.951335 6.559746 -0.165811
O 0.596681 3.316111 3.958527
O 2.603511 1.094778 7.397553
O 2.921403 6.810905 7.862250
O 1.404338 0.987613 3.206453
O 2.330701 7.530129 5.683373
O 3.271197 4.025995 5.955789
O 2.603511 3.005514 2.102173
O 2.921403 5.489972 2.566869
O 2.330701 4.770747 0.387993
O 4.732143 8.126287 6.287178
O 3.271197 0.074297 0.660409
O 5.672640 3.429837 6.559594
O 5.081937 2.710613 4.380718
O 5.399830 5.195070 4.845414
O 4.732143 4.174590 0.991798
O 5.672640 0.670455 1.264214
O 6.599002 7.212972 3.741134
O 5.081937 1.389679 -0.914662
O 5.399830 7.105806 -0.449966
O 7.406659 4.884473 2.989060
O 0.052006 1.640839 7.113398
O 6.599002 5.087905 -1.554246
O 7.406659 7.416404 -2.306320
O 0.052006 2.459454 1.818018
