28

Li 4.738687 10.288966 0.003450
Li 4.738687 10.288966 3.028449
Li 2.370484 5.187550 3.040480
Li 2.370484 5.187550 6.055219
Fe 2.255710 2.248856 4.547850
Fe 2.482925 8.058407 1.515950
Fe 4.617985 2.865759 1.515950
Ni 0.081509 7.484278 4.547850
P 0.394658 6.169478 1.515950
P 1.973389 0.954474 1.515950
P 2.756473 9.332660 4.547850
P 4.364500 4.180487 4.547850
O 0.979804 4.724168 1.515950
O 1.031197 6.885513 0.266662
O 1.031197 6.885513 2.765238
O 1.157243 4.178888 4.547850
O 1.217001 9.302085 4.547850
O 1.341491 1.692018 0.279529
O 1.341491 1.692018 2.752371
O 1.387512 9.890642 1.515950
O 3.332648 0.398559 4.547850
O 3.411227 8.593500 3.321028
O 3.411227 8.593500 5.774672
O 3.510277 0.962770 1.515950
O 3.597960 6.147176 1.515950
O 3.717628 3.447018 3.317141
O 3.717628 3.447018 5.778558
O 3.798146 5.632394 4.547850
