36

Li 1.486796 1.830775 2.275778
Li 1.616303 3.948291 7.351193
Li 6.952663 5.250539 7.236779
Cr 3.172930 4.380188 5.119428
Cr 5.730545 7.968122 9.353845
Cr 7.574105 10.519223 12.386527
S 0.328828 5.655771 5.354581
S 4.140525 2.603988 7.580856
S 6.676197 7.211887 5.230734
S 2.242925 5.257478 9.257897
S 4.805148 9.729160 6.976744
S 8.528849 6.651680 9.205671
O 0.959558 2.747368 4.842544
O 2.688096 5.269373 3.585067
O 0.038600 6.997832 4.896542
O 4.648526 3.389513 4.966658
O 0.238894 5.293761 6.543721
O 2.095510 5.696421 5.417907
O 3.390541 3.679015 6.769223
O 2.997660 1.810208 8.248156
O 5.570851 5.889134 5.753342
O 0.408019 5.246256 8.795446
O 2.468699 4.050121 8.957794
O 3.143342 8.931580 6.302171
O 5.901251 3.520791 8.237115
O 6.330543 8.421094 5.476127
O 8.499725 7.291063 5.712253
O 3.376886 6.583923 8.801276
O 6.043074 10.631421 6.328991
O 5.655418 8.763071 7.804706
O 6.783735 6.610452 9.203863
O 8.598260 6.878262 8.062900
O 4.395995 9.069888 9.570627
O 8.771609 5.283002 9.760264
O 6.110217 7.096064 10.920295
O 7.969888 9.543506 9.727653
