25

Cr 0.030476 0.008859 3.613593
Cr 2.470075 4.021843 6.472469
P 0.517219 2.663258 1.610694
P 1.919331 6.755600 1.238622
P 2.999808 1.325704 4.492997
P 4.417300 5.389677 4.133304
H 4.571124 0.221861 5.553587
H 1.735992 4.221672 2.325163
H 3.264224 3.772250 3.501212
O 0.802337 4.559583 5.872563
O 0.187561 1.258511 2.126869
O 0.992060 6.667282 2.590741
O 1.251697 3.414033 2.691537
O 1.652787 0.642278 4.264178
O 2.752577 2.794648 4.931229
O 1.221147 7.536271 0.218723
O 1.485538 2.637546 0.305924
O 3.453332 5.417779 5.448446
O 3.613102 0.559653 5.609461
O 2.150226 5.292642 0.768167
O 3.277033 7.409972 1.495490
O 3.660693 4.609515 3.083163
O 3.949731 1.384902 3.178342
O 4.732303 6.791116 3.621121
O 4.124483 3.481435 -0.129266
