24

Li 0.899264 3.422790 5.703765
Li 1.661649 4.482865 10.573905
Li 3.444499 2.526911 9.296500
Li 4.225271 3.580515 4.626189
Li 4.678608 6.408340 7.824736
Fe 1.279152 1.752068 7.384530
Fe 3.849978 5.273357 2.904841
Ni 0.436816 0.598312 2.462861
Ni 0.005078 2.222058 10.362759
Ni 2.578245 1.316348 4.409542
Ni 2.124343 2.909735 2.681384
Ni 2.954818 4.047247 7.601517
O 4.791058 3.498941 7.870453
O 1.232441 4.751512 7.347326
O 0.621034 1.951290 4.046161
O 1.899604 1.501255 1.092837
O 1.570685 3.111315 8.885390
O 2.685786 2.718820 6.103572
O 2.255312 4.391163 4.237741
O 3.767820 3.858787 1.354805
O 3.111685 5.326471 9.102381
O 4.348098 4.891275 6.301387
O 4.032395 2.209915 2.952853
O 0.183509 3.564656 2.405669
