72

Li 1.719734 2.369776 7.113554
Li 2.783131 3.905955 2.540280
Li 6.222600 8.645506 6.606268
Li 7.285997 10.181686 2.032994
Ti 2.234664 7.810383 4.750470
Ti 2.268201 11.112127 0.177196
Ti 2.264545 1.438227 4.263023
Ti 2.238320 4.837504 8.836297
Ti 6.767411 7.713958 0.310251
Ti 6.741186 11.113234 4.883525
Ti 6.737530 1.439334 8.969352
Ti 6.771067 4.741079 4.396078
V 0.270910 6.157391 2.275615
V 0.969512 10.808160 3.483426
V 1.017341 1.773149 1.000074
V 3.533354 8.114350 8.056700
V 3.485524 4.502582 5.573348
V 4.231955 0.118339 6.848889
V 4.773776 12.433122 2.297659
V 5.520207 8.048880 3.573200
V 5.472377 4.437112 1.089848
V 7.988390 10.778312 8.146473
V 8.036219 1.743301 5.663122
V 8.734821 6.394070 6.870932
O 0.682328 5.587726 8.029809
O 0.683364 11.252928 8.200191
O 0.722647 7.633055 6.061490
O 0.709769 2.175929 5.340120
O 0.988775 7.291178 3.377299
O 1.151104 10.675420 1.771494
O 1.332470 12.440407 3.973910
O 1.351067 3.033852 8.983767
O 1.575598 2.258909 2.601059
O 1.584027 5.262455 1.511458
O 1.986898 9.659384 4.340156
O 2.515967 9.263125 8.913430
O 2.544930 5.854234 5.110021
O 1.957936 0.421497 0.536747
O 2.918838 1.013275 6.084732
O 2.927268 4.016821 7.174333
O 3.170396 6.482103 8.547184
O 3.151799 3.241879 4.410493
O 3.351762 8.247090 6.344768
O 3.514090 11.631332 7.950573
O 3.780219 11.289455 1.488217
O 3.819502 7.669582 3.626917
O 3.793097 4.099802 0.766847
O 3.820537 0.688005 3.456535
O 5.185194 11.863456 5.690013
O 5.212634 8.451659 8.379701
O 5.186229 4.881880 5.519631
O 5.225512 1.262006 7.658331
O 5.491641 0.920130 1.195975
O 5.653969 4.304372 2.801780
O 5.853932 9.309583 4.736055
O 5.835335 6.069359 0.599364
O 6.078463 8.534640 1.972215
O 6.086893 11.538186 3.061816
O 7.047795 12.129964 8.609801
O 6.460801 6.697228 4.036527
O 6.489764 3.288336 0.233118
O 7.018833 2.892077 4.806392
O 7.421704 7.289006 7.635090
O 7.430133 10.292552 6.545489
O 7.654664 9.517609 0.162781
O 7.673261 0.111054 5.172638
O 7.854627 1.876042 7.375054
O 8.016956 5.260284 5.769249
O 8.295962 10.375533 3.806427
O 8.283084 4.918407 3.085057
O 8.322367 1.298533 0.946357
O 8.323403 6.963736 1.116739
