24

Fe 4.628590 2.792483 1.476793
Co 0.146379 7.172456 4.430379
Co 2.077120 2.140640 4.430379
Co 2.573787 7.606875 1.476793
P 0.462906 5.899450 1.476793
P 2.029743 0.950492 1.476793
P 2.851163 8.925486 4.430379
P 4.400120 4.000221 4.430379
O 0.738478 4.402673 1.476793
O 1.164333 6.615679 0.270625
O 1.164333 6.615679 2.682961
O 1.094649 3.748805 4.430379
O 1.327164 8.677494 4.430379
O 1.290723 1.688279 0.281524
O 1.290723 1.688279 2.672062
O 1.671858 9.282109 1.476793
O 3.159880 0.612938 4.430379
O 3.578617 8.237742 3.226061
O 3.578617 8.237742 5.634698
O 3.526682 1.186253 1.476793
O 3.767312 6.187112 1.476793
O 3.695524 3.301941 3.216609
O 3.695524 3.301941 5.644150
O 4.151704 5.525706 4.430379
