12

Li 2.565699 2.981681 3.468533
Li 7.514598 6.029791 6.523734
Li 13.010944 9.351103 9.830863
Fe 10.262779 6.278364 6.278364
Cu 15.362264 9.400980 9.401998
Cu 5.163294 5.979924 6.952609
O 3.714334 3.007721 3.261281
O 8.928782 6.191695 6.443179
O 1.417063 2.955641 3.675784
O 14.033440 9.314540 9.566030
O 6.492118 6.066364 6.788577
O 11.596775 9.189209 9.911428
