44

Li 1.753748 4.519305 11.707155
Li 0.769068 3.335014 6.608712
Li 3.869117 5.226774 13.126753
Li 1.775419 4.536621 1.983408
Li 4.274086 3.650486 14.166205
Li 2.616301 5.688981 16.731291
Li 3.816898 5.210106 3.428365
Li 3.419604 2.389817 9.064180
Li 4.227042 3.652610 4.440920
Li 3.420649 2.381073 -0.655559
Cr 1.266456 1.760777 17.377396
Cr 4.697064 6.376510 18.233416
Cr 2.979417 4.071956 17.816047
Cr 2.091078 2.877582 12.724714
Cr 0.344683 0.576681 12.332155
Cr 1.280198 1.748793 7.632851
Cr 4.669702 6.374736 8.514519
Cr 2.993587 4.086768 8.077497
Cr 2.118679 2.887715 2.979118
Cr 0.415921 0.573375 2.542002
O 1.060619 4.755782 18.567241
O 1.454156 3.179226 19.278720
O 3.168116 5.496840 19.738391
O 0.375991 3.684190 13.426338
O 2.186154 4.178053 14.569042
O 1.017854 4.705170 8.839103
O 0.732371 1.838971 13.997810
O 1.467112 3.176858 9.533282
O 3.169156 5.493952 10.002726
O 0.370066 3.739640 3.707596
O 4.443923 5.007858 16.387723
O 2.878375 2.640682 15.854239
O 1.860230 1.615623 10.991337
O 2.163448 4.111692 4.876612
O 4.873178 3.326726 17.018024
O 3.592246 3.639584 11.144205
O 0.670224 1.942774 4.311406
O 3.893949 2.375576 12.225916
O 4.522061 5.007951 6.602339
O 2.828119 2.684061 6.183974
O 1.863239 1.515806 1.210289
O 4.869823 3.329713 7.294276
O 3.506364 3.632152 1.464812
O 4.127601 2.395426 2.322698
