28

Li 1.989382 2.451050 8.846887
Li 5.968045 2.183752 9.786983
Li 0.000125 5.168916 4.865657
Li 3.978788 -0.267082 3.921778
Ti 3.938497 2.320244 2.125513
Ti 2.029673 -0.136239 7.047189
Ti 4.953772 -1.599076 7.046356
Ti 1.014040 3.783275 2.126651
Ti 1.014398 1.249927 2.124941
Ti 4.954130 0.934219 7.048067
Nb 1.989102 2.451139 4.812356
Nb 3.979069 -0.267031 9.733858
O 0.975038 3.837510 5.897979
O 0.213374 2.570515 3.333366
O 1.988451 2.451314 1.023242
O 0.000907 0.000394 3.059293
O 5.967263 -2.984660 7.980618
O 0.974680 1.200552 5.895815
O 2.877810 3.544536 3.335785
O 2.877911 1.238679 3.333959
O 1.948614 -0.130685 0.973172
O 4.019557 2.314927 5.898111
O 3.090360 0.945662 8.257366
O 3.090259 -1.360181 8.255541
O 3.979719 -0.266943 5.944744
O 4.993132 0.983213 0.972779
O 5.754796 -0.386024 8.254720
O 4.993490 -1.653793 0.970616
