68

Li 9.599682 0.021968 4.345246
Li 0.012981 5.799910 5.780597
Li 0.012981 5.799910 2.909895
Li 0.016092 3.269827 1.448415
Li 4.799003 9.121761 1.448415
Li 4.845603 5.873902 4.345246
Li 4.802114 11.651856 5.780597
Li 4.802114 11.651856 2.909895
Li 4.839036 2.564809 1.448415
Li 4.869785 2.561333 4.345246
Li 9.606249 8.416743 1.448415
Li 9.575500 8.413267 4.345246
Mn 2.355939 1.308352 5.788609
Mn 2.355939 1.308352 2.901883
Mn 2.459156 7.160286 5.788609
Mn 2.459156 7.160286 2.901883
Mn 7.167057 4.544682 0.002306
Mn 7.167057 4.544682 2.894525
Mn 7.278228 10.396616 0.002306
Mn 7.278228 10.396616 2.894525
C 2.302155 10.091918 2.892584
C 2.302155 10.091918 0.004247
C 2.512940 4.239984 0.004247
C 2.512940 4.239984 2.892584
C 7.145967 7.477648 0.000058
C 7.145967 7.477648 2.896773
C 7.299318 1.625714 0.000058
C 7.299318 1.625714 2.896773
O 1.233897 1.741325 1.448415
O 1.203610 1.678850 4.345246
O 1.254188 6.752090 1.448415
O 1.249633 6.761126 4.345246
O 1.258772 4.235454 0.061065
O 1.258772 4.235454 2.835765
O 1.572456 11.179664 5.746721
O 1.572456 11.179664 2.943771
O 1.587296 8.976001 5.787902
O 1.587296 8.976001 2.902590
O 3.227799 3.124067 5.787902
O 3.227799 3.124067 2.902590
O 3.242639 5.327730 5.746721
O 3.242639 5.327730 2.943771
O 3.556323 10.087388 0.061065
O 3.556323 10.087388 2.835765
O 3.560907 0.900156 1.448415
O 3.565462 0.909192 4.345246
O 3.581198 7.593259 1.448415
O 3.611485 7.530784 4.345246
O 6.045901 4.115431 1.448415
O 5.984219 4.165524 4.345246
O 6.063120 10.799627 1.448415
O 6.118821 10.838941 4.345246
O 6.025388 1.611330 5.793412
O 6.025388 1.611330 2.897080
O 6.417164 6.393285 5.767364
O 6.417164 6.393285 2.923128
O 6.454202 8.583535 0.026744
O 6.454202 8.583535 2.870087
O 7.991084 2.731601 0.026744
O 7.991084 2.731601 2.870087
O 8.028121 0.541351 5.767364
O 8.028121 0.541351 2.923128
O 8.419897 7.463264 5.793412
O 8.419897 7.463264 2.897080
O 8.382166 4.947693 1.448415
O 8.326465 4.987007 4.345246
O 8.399384 9.967365 1.448415
O 8.461066 10.017458 4.345246
