32

Li 4.965935 0.749542 4.288687
Li 5.129164 3.844077 4.318337
Li 5.129164 2.240509 9.176971
Li 4.965935 5.335043 9.147321
Li 1.282998 2.338641 0.489992
Li 1.282998 3.745944 5.348626
Li 2.732051 5.335043 3.509898
Li 2.568823 2.240509 3.480248
Li 2.732051 0.749542 8.368532
Li 2.568823 3.844077 8.338882
Li 3.848993 3.863426 1.469975
Li 3.848993 2.221160 6.328610
Fe 1.282998 5.283288 0.489992
Fe 1.282998 0.801297 5.348626
Fe 3.848993 0.623183 1.469975
Fe 3.848993 5.461402 6.328610
O 3.128231 0.772535 4.895656
O 3.128231 5.312050 9.754290
O 4.569756 5.312050 2.902929
O 4.569756 0.772535 7.761563
F 0.715815 5.192786 3.857787
F 0.625138 2.392873 3.842649
F 0.715815 0.891799 8.716421
F 1.940858 3.691712 1.995969
F 0.625138 3.691712 8.701283
F 1.850180 0.891799 1.980831
F 1.940858 2.392873 6.854603
F 1.850180 5.192786 6.839465
F 3.221094 3.807393 4.923095
F 4.476893 2.277192 2.875490
F 3.221094 2.277192 9.781729
F 4.476893 3.807393 7.734124
