28

Li 0.000000 0.000000 0.000000
Li 0.000000 3.032273 0.000000
Li 5.225046 0.000000 2.397390
Li 5.225046 3.032273 2.397390
Mn 2.316253 4.548410 2.291375
Mn 8.133840 1.516137 2.503405
Co 2.917112 1.516137 4.657826
Co 7.532981 4.548410 0.136953
P 0.991045 1.516137 1.960736
P 4.283378 4.548410 4.397514
P 6.166715 1.516137 0.397265
P 9.459048 4.548410 2.834044
O 0.451737 4.548410 3.379608
O 1.023952 1.516137 3.495780
O 1.729710 0.291056 1.308353
O 1.729710 2.741217 1.308353
O 3.528004 3.307373 3.781641
O 3.528004 5.789446 3.781641
O 4.261151 4.548410 1.166465
O 4.740016 1.516137 1.017756
O 5.710077 4.548410 3.777024
O 6.188942 1.516137 3.628314
O 6.922089 0.275100 1.013139
O 6.922089 2.757173 1.013139
O 8.720383 3.323329 3.486427
O 8.720383 5.773491 3.486427
O 9.426141 4.548410 1.299000
O 9.998356 1.516137 1.415172
