48

Na 0.467940 7.760756 1.379226
Na 0.467935 7.760771 5.598274
Na 4.764999 3.399229 8.356590
Na 4.764993 3.399245 12.575638
Li 0.136836 7.394155 10.466176
Li 5.096045 3.765787 3.488618
Mn 2.616511 5.579963 -0.000017
Mn 2.616506 5.580040 6.977376
P 0.051026 4.540587 8.987336
P 0.050995 4.540564 11.945055
P 1.842790 2.464159 1.088025
P 1.842758 2.464189 5.889454
P 2.414797 1.089256 10.466123
P 2.818131 10.070751 3.488768
P 3.390164 8.695859 8.065424
P 3.390154 8.695846 12.866853
P 5.181912 6.619434 4.967528
P 5.181954 6.619426 2.009795
O 0.292553 4.864720 3.488743
O 1.071706 1.165295 0.569568
O 1.071685 1.165276 6.407932
O 1.144690 1.645066 10.466136
O 0.754182 3.045656 2.045328
O 0.754119 3.045628 4.932169
O 0.638319 5.376556 5.889669
O 0.638366 5.376577 1.087793
O 1.553126 5.157738 8.852212
O 1.553084 5.157702 12.080126
O 2.595543 3.497547 0.153969
O 2.595543 3.497573 6.823404
O 2.982749 2.286055 2.235111
O 2.982707 2.286046 4.742336
O 1.360611 9.249368 3.488752
O 3.872312 1.910619 10.466098
O 2.250190 8.873938 9.212556
O 2.250174 8.873958 11.719795
O 2.637390 7.662463 7.131418
O 2.637364 7.662424 13.800909
O 3.679881 6.002321 1.874724
O 3.679823 6.002313 5.102610
O 4.594619 5.783491 8.065167
O 4.594588 5.783432 12.867043
O 4.478799 8.114383 9.022709
O 4.478752 8.114335 11.909536
O 4.088244 9.514961 3.488728
O 4.161196 9.994745 7.546960
O 4.161212 9.994681 13.385352
O 4.940475 6.295251 10.466093
