40

Li 2.128526 7.769040 8.019273
Li 6.756928 4.914485 6.732318
Li 6.724134 9.192745 6.575322
Li 6.707904 6.509269 9.759576
Mn 0.246942 7.844561 2.568004
Mn 4.197308 6.160433 7.217836
Fe 0.452430 5.275454 6.603446
Fe 3.848643 8.725913 10.457948
Fe 8.261722 7.238251 7.946145
P 2.065031 3.100179 5.852619
P 2.090616 8.512520 5.343112
P 2.086797 5.477062 9.466856
P 6.391132 7.045420 5.002034
P 6.488117 3.955097 9.218615
P 6.321243 9.334932 8.664606
W 4.787423 3.792048 4.093437
O 0.475132 1.043117 2.825817
O 0.452490 4.360022 2.261461
O 0.424691 2.751982 4.901018
O 1.971994 1.767626 6.701271
O 3.589754 3.431362 5.323770
O 2.364852 4.389736 6.434904
O 2.046269 8.306276 4.132430
O 2.322797 7.247573 6.213221
O 4.832413 7.319407 4.210873
O 2.348459 5.745642 8.241372
O 6.542411 5.564365 4.839327
O 5.002128 2.754522 8.745881
O 3.657909 9.747307 5.848483
O 1.954202 6.874308 9.683546
O 6.229897 6.778893 6.271783
O 3.624625 5.084887 10.260822
O 6.307854 5.329884 8.437688
O 6.506355 4.281886 10.454399
O 6.269901 8.087011 8.072673
O 4.638100 8.938012 8.945045
O 6.555629 10.620327 7.678213
O 7.811926 9.768258 9.674035
O 7.995949 8.129125 12.185043
O 8.173980 11.506039 11.849992
