11

V 0.086624 8.344687 2.249949
V 2.132692 3.638758 2.249949
V 2.546602 6.233598 0.749983
O 1.380175 4.617219 0.749983
O 1.554253 7.069828 2.249949
O 3.329337 5.249011 2.249949
O 4.010187 7.542583 0.749983
F 0.980361 2.293723 2.249949
F 1.089073 9.182431 0.749983
F 3.209505 2.925700 0.749983
F 3.776608 0.152417 2.249949
