16

Li 0.729171 0.955411 1.376119
Li 3.621431 2.128103 2.924482
Li 0.753645 3.585072 2.969140
Li 0.817909 1.089459 3.828229
Li 0.766277 3.600446 5.330906
Mn 3.600677 -0.701851 1.307390
Mn 3.709653 -0.568536 3.773932
Mn 3.653406 2.117698 5.307113
O 5.002859 -1.321809 2.557953
O 5.015687 -1.238970 4.984630
O 2.417521 0.124833 2.567923
O 2.201152 2.875625 4.130380
O 2.444672 0.194631 5.010499
F 5.362790 1.440354 4.057610
F 5.312055 1.454942 6.572994
F 2.057353 2.804057 6.622926
