57

Li 6.204511 1.515684 0.055508
Li 3.522505 1.295831 9.489542
Li 5.275057 -2.623647 5.714784
Li 2.620002 3.254419 11.378422
Li 4.402226 -0.672272 7.612628
Li 1.751341 -0.866620 17.293098
Li 0.893422 1.101478 19.216932
Li 5.297691 -2.640827 17.254551
Ti 2.603920 3.235255 -0.113558
Ti 0.881665 4.136465 5.642410
Ti 2.630174 0.222608 1.854516
Ti 3.523237 4.328458 18.960312
Ti 1.773904 2.168549 3.804172
Ti 6.212852 -1.541103 1.800351
Ti 0.879615 1.084264 7.650373
Ti 4.405008 2.378416 5.603310
Ti 7.029287 2.583901 7.435342
Ti 2.624462 0.204484 13.378642
Ti 6.173819 1.480652 11.337767
Ti 0.938020 4.115571 17.190143
Ti 6.171382 -1.541055 13.326259
Ti 4.357966 2.410051 17.149592
Ti 5.280622 0.421621 15.277197
Ti 4.385566 -0.694497 19.175321
Cu 5.929417 1.223857 -2.202505
S 1.404332 4.678449 -2.098266
S 4.802906 2.981887 -2.127242
S 1.332022 1.636126 -0.004132
S 0.489530 3.525276 1.853166
S 0.488459 0.587500 3.787748
S 3.885265 1.832674 1.813725
S 4.798876 -0.174517 -0.059814
S 3.043584 3.773622 3.720229
S 3.050649 0.799272 5.683481
S 1.287065 4.735532 9.448889
S 2.190244 2.707328 7.504722
S 3.954842 -1.231970 3.699764
S 6.613842 2.048494 3.697718
S 5.764228 0.984689 7.485774
S 2.136432 -0.343470 9.592190
S 0.372094 3.585384 13.378802
S 6.662468 -0.998529 5.631985
S 4.909437 2.926226 9.409532
S 1.281761 1.596440 11.507092
S 0.433133 0.537845 15.302910
S 4.844192 -0.123398 11.487685
S 5.758564 -2.147144 9.540893
S 3.994008 1.782216 13.323782
S 3.077467 3.798005 15.250516
S 2.232488 2.746415 19.078849
S 3.993853 -1.184146 15.281574
S 3.140393 0.752604 17.216391
S 6.578275 2.012644 15.226949
S 6.578740 -0.964963 17.182182
S 5.715024 0.937273 18.952552
S 2.230396 -0.389505 21.124035
S 5.655168 -2.098567 21.090111
