26

Li 0.492933 2.987027 4.567515
Li 1.980936 7.021074 5.421406
Fe 2.487945 4.002735 -0.922732
Fe 4.933662 8.036783 1.700745
P 0.643112 2.805962 1.663583
P 1.830757 6.840010 1.028151
P 3.102623 1.255194 4.328966
P 4.318985 5.289241 3.746234
H 2.714384 4.181920 2.739585
H 4.707224 0.147872 5.335615
O 0.602541 4.419299 5.920094
O 0.197979 1.420792 2.231350
O 0.792489 6.697769 2.296346
O 1.265681 3.531421 2.762625
O 1.871329 0.385252 4.068827
O 2.576258 2.614071 4.906808
O 1.208188 7.565469 -0.070892
O 1.681380 2.663722 0.395388
O 3.225559 5.453161 4.970417
O 3.700898 0.443237 5.431049
O 2.275890 5.454839 0.460384
O 3.075346 7.670209 1.306696
O 3.720709 4.477284 2.644151
O 4.196048 1.419113 3.104783
O 4.845350 6.648118 3.168392
O 4.346261 3.636161 -0.528683
