28

Li 1.934351 2.443908 8.726843
Li -0.012369 5.087152 9.524671
Li 0.012369 5.085639 4.697177
Li 3.984046 -0.230966 3.917790
Co 1.028304 3.721790 2.097271
Co 0.970351 1.235411 2.062970
Co 3.856469 2.310140 2.043517
Co 2.061928 -0.128781 6.887845
Co 4.890094 0.935700 6.943993
Co 4.948047 -1.557794 6.909742
W 2.036556 2.407569 4.706652
W 3.881841 -0.254754 9.552521
O 1.185893 3.767843 5.664508
O 0.255811 2.563256 3.460217
O 1.940453 2.489297 1.068004
O 5.847673 2.120316 2.866709
O 0.070725 -0.074170 7.709350
O 1.184786 1.175550 5.666033
O 2.952440 3.473615 3.279810
O 2.971681 1.291779 3.307942
O 1.983042 -0.126827 0.844742
O 3.935356 2.302405 5.655490
O 2.965958 0.923721 8.124903
O 2.946717 -1.255753 8.153019
O 3.977944 -0.184828 5.913954
O 4.732505 1.001087 0.856089
O 5.662587 -0.317656 8.307594
O 4.733611 -1.591331 0.857615
