42

Li 7.972749 2.163112 9.497034
Li 8.300469 7.875559 9.678387
Li 7.890035 5.578489 6.451022
Li 5.419218 6.578347 9.696524
Li 3.841852 1.637200 4.402751
Li 1.370073 2.941599 7.868617
Li 0.938369 0.582494 4.566849
Li 1.330807 6.152785 4.792742
Ti 4.127159 1.267306 6.755132
Mn 8.922702 5.410401 10.732977
Mn 5.179829 7.176685 7.499889
Mn 0.316524 3.000374 3.537138
P 6.902269 8.062976 11.782511
P 6.947873 4.534686 8.309180
P 7.019901 2.047230 5.213675
P 2.251486 6.467608 9.102605
P 2.324892 3.797803 5.991956
P 2.368109 0.408380 2.439777
O 8.254819 1.115219 8.117832
O 7.400607 4.036691 9.303611
O 7.295836 7.104736 10.804021
O 8.302754 4.742386 7.677169
O 8.353011 1.617786 5.854063
O 6.585458 6.162868 8.579315
O 5.364427 -0.011305 7.236548
O 5.463166 3.200343 7.622796
O 7.450402 3.854531 5.263667
O 6.771703 1.062948 4.106903
O 5.420134 1.559506 5.631644
O 6.663749 7.072098 6.322123
O 2.645959 1.319892 7.809394
O 3.822413 6.913256 8.734049
O 2.501376 7.530388 10.230664
O 1.758782 4.676514 9.101325
O 3.805306 5.017436 6.607799
O 3.885790 0.173838 2.916039
O 2.648929 2.071402 5.755222
O 0.897141 6.869425 8.448494
O 0.915747 3.608152 6.598738
O 1.841996 1.426846 3.333755
O 1.809845 4.176007 4.961096
O 1.010859 7.338252 6.106393
