19

Li 2.406843 4.367920 2.312163
V 2.350785 2.737192 8.009732
V 2.529864 1.124829 2.837575
V 2.597781 4.703423 5.663826
V 4.759029 3.673063 2.909625
V 4.685100 1.892399 5.509703
V 4.738172 5.639103 8.266283
O 0.926881 1.622367 7.239394
O 1.519002 2.702373 2.144050
O 3.326156 3.000776 6.326099
O 3.331411 4.941395 3.833267
O 3.819774 0.131108 5.954666
O 3.839431 3.972663 1.187024
O 3.915739 2.085011 3.671717
F 0.953585 3.633862 4.852016
F 0.980516 5.529895 2.395755
F 1.437714 4.512780 7.452080
F 1.447969 0.760008 4.536234
F 3.353366 1.085259 0.909150
