24

Co 0.264962 7.116612 4.373186
Co 2.134622 2.146135 4.373186
Co 2.649954 7.661195 1.457729
Ni 4.568592 2.612477 1.457729
P 0.411596 5.885365 1.457729
P 2.000586 0.897316 1.457729
P 2.814003 8.891548 4.373186
P 4.327050 3.875231 4.373186
O 0.783596 4.413233 1.457729
O 1.117392 6.641865 0.262444
O 1.117392 6.641865 2.653014
O 1.066194 3.803910 4.373186
O 1.289632 8.731304 4.373186
O 1.322138 1.653919 0.244793
O 1.322138 1.653919 2.670664
O 1.607989 9.320753 1.457729
O 3.187726 0.455734 4.373186
O 3.502346 8.119207 3.172548
O 3.502346 8.119207 5.573824
O 3.517876 0.980692 1.457729
O 3.680050 6.007211 1.457729
O 3.606379 3.186078 3.177143
O 3.606379 3.186078 5.569229
O 4.012382 5.401259 4.373186
