68

Mn 2.111081 8.145328 7.262275
Mn 2.118356 4.506375 4.474722
Mn 2.109365 0.289535 1.391928
Mn 2.113692 3.922517 10.372313
Mn 6.341970 4.501035 1.390785
Mn 6.338126 8.138288 10.368978
Mn 6.330732 0.285395 4.488528
Co 6.326753 3.913200 7.259983
P 0.302343 2.111126 5.867107
P 0.896654 3.301205 1.707573
P 0.895260 0.915693 10.049516
P 3.325026 5.122486 7.579834
P 3.326251 7.517919 4.164011
P 3.917300 6.322371 0.000175
P 4.532160 2.103981 11.755124
P 5.125947 3.292256 4.178778
P 5.132774 0.906193 7.587965
P 7.547880 5.129312 10.040738
P 7.550406 7.512528 1.709613
P 8.141641 6.306502 5.872490
O 0.517622 5.414764 4.957290
O 0.501027 7.235687 6.791543
O 0.638156 7.597988 1.876106
O 0.636914 5.058027 9.878234
O 1.247481 1.348171 6.817235
O 1.221550 2.886260 4.903523
O 1.337208 3.699717 0.306114
O 1.339776 0.509394 11.446568
O 1.275745 1.861734 2.069853
O 1.275027 2.355526 9.688269
O 1.523521 4.335370 2.667892
O 1.509123 8.321959 9.069117
O 2.708797 0.115083 3.203787
O 2.698953 4.098756 8.548581
O 2.946627 6.562564 7.947286
O 2.953556 6.076888 3.800608
O 2.877003 4.732471 6.182301
O 2.877881 7.914378 5.564339
O 2.990793 7.095485 0.957649
O 2.993125 5.551023 10.794318
O 3.598928 0.821415 7.766240
O 3.586786 3.364616 4.011220
O 3.715642 1.188635 0.912467
O 3.715431 3.022233 10.842242
O 4.735863 5.405390 0.911375
O 4.733860 7.238535 10.841985
O 4.879143 5.040110 7.760876
O 4.863857 7.588064 4.007769
O 5.462114 2.872951 0.956529
O 5.452482 1.329222 10.792688
O 5.573066 0.508910 6.188741
O 5.571063 3.709431 5.571093
O 5.501354 1.853996 3.807820
O 5.504117 2.361796 7.960210
O 5.725649 4.328024 3.198799
O 5.759726 8.309245 8.545769
O 6.927249 0.108138 2.679733
O 6.937143 4.087155 9.059889
O 7.176664 6.070485 2.072428
O 7.182181 6.572427 9.690063
O 7.108146 4.724928 11.440098
O 7.106878 7.913899 0.310625
O 7.190470 5.544653 6.836725
O 7.223770 7.086117 4.911786
O 7.806885 0.833566 9.886854
O 7.808288 3.363758 1.876362
O 7.942172 1.175926 4.959497
O 7.943726 3.025391 6.807372
