84

Li 0.575122 2.783676 10.983383
Li 1.862250 9.096867 12.901832
Li 6.567462 5.696247 13.498812
Li 4.861502 1.440285 3.784495
Li 4.199585 5.882422 7.678680
Li 8.939950 2.478762 8.343907
Mn 5.330323 0.054009 7.765601
Mn 1.815279 2.516173 4.037487
Mn 8.607844 3.603142 14.220398
Mn 5.457823 5.628507 10.440070
Mn 8.396616 8.979928 17.095886
Mn 1.874314 8.166980 6.632432
P 2.833897 1.099294 11.424268
P 2.347331 0.951840 8.848759
P 1.050436 5.552482 12.796543
P 1.725615 4.026156 8.929630
P 5.979147 2.764378 11.558589
P 0.788111 4.318422 6.399193
P 7.882528 0.756649 10.427856
P 4.776865 7.423316 15.517558
P 4.225406 7.160571 12.952374
P 8.157817 -0.603373 6.557286
P 7.262325 -0.095013 4.108794
P 6.462011 3.827803 7.877671
P 2.790163 10.535827 10.584865
P 5.515512 4.378934 5.441579
P 9.556461 7.304787 14.580272
P 4.535334 8.552473 9.342767
P 9.017511 7.344768 12.063515
P 9.165657 6.167373 8.252073
O 2.178838 1.450322 10.181409
O 8.006722 -0.982070 13.268609
O 0.251309 3.798864 9.257931
O 4.566964 1.958742 11.943554
O 3.880285 0.614078 8.861850
O 0.544472 7.128857 13.220868
O 2.149118 2.433594 8.451582
O 7.091645 1.473450 14.028435
O 3.823299 0.292200 6.238001
O 2.517744 0.464643 4.197033
O 6.751512 1.393438 11.179242
O 3.186787 7.650095 15.378840
O 2.622788 6.064009 12.524028
O 7.021576 -0.024852 9.222722
O 8.878422 -0.011145 11.145032
O 6.951705 4.747635 15.056575
O 1.494515 3.171224 5.745851
O 6.560890 -0.912420 6.604797
O 1.558379 4.627924 7.774483
O 5.392416 3.423961 10.583730
O 3.036603 5.040207 9.804211
O 0.017636 4.710044 11.629938
O 6.963680 3.786721 12.679812
O 5.027491 6.901154 14.208671
O 5.528447 10.178711 9.501298
O 1.050050 10.709208 13.657740
O 1.937267 1.961938 2.186065
O 0.893403 5.793985 6.138477
O 6.583306 2.331646 8.080259
O 6.034500 8.577947 16.280581
O 5.233918 6.515830 12.246056
O 1.254399 9.843932 10.837244
O 8.898572 2.299031 10.407374
O 1.243027 4.730235 3.767975
O 3.912232 8.695108 13.028040
O 0.721931 8.601981 7.917580
O 5.617013 4.845690 8.504803
O 9.260042 0.521395 7.565899
O 4.271099 3.312090 4.504597
O 8.238505 0.034897 5.420861
O 5.770255 3.632756 6.513391
O 9.830256 5.735621 14.366249
O 0.067704 8.287426 5.233638
O 8.621976 7.773685 15.391935
O 3.297354 9.028934 10.002902
O 7.791002 6.171326 11.244663
O 3.796973 7.870255 8.068355
O 5.492472 7.652072 9.947125
O 8.733869 7.630713 13.365836
O 4.887511 5.844263 5.965244
O 8.244196 4.512901 8.118659
O 2.864715 10.498073 6.935496
O 8.850355 8.925319 11.773137
O 8.134767 6.922572 7.564282
