36

K 1.427233 7.008160 8.388453
K 1.856052 4.174577 5.907649
K 1.419997 6.305086 3.282219
K 3.615029 0.416587 6.127658
K 1.572252 8.939913 0.824160
K 4.384148 2.063065 3.336618
K 4.052432 4.470692 1.155816
K 4.294198 2.755201 -1.979024
Li 1.856230 8.730376 4.931358
Li 3.402535 6.827202 5.071753
Li 2.160117 2.209231 1.593743
Li 3.434181 0.059572 1.861348
Li 1.975821 4.656829 -0.345422
Li 4.888675 4.861643 5.072764
Li 3.416851 6.796860 -0.042057
Li 4.985516 8.826290 -0.093292
Ni 0.765165 2.611403 9.222608
Ni 0.594611 1.873860 4.101476
Ni 4.967897 7.047207 2.553559
Ni 4.941582 6.483153 -2.586457
O 1.047672 0.974627 8.555358
O 1.329545 4.235300 8.498605
O 1.393025 1.615984 5.251304
O 1.333572 7.019881 5.841222
O 1.352116 3.407054 3.312601
O 1.375545 0.482054 2.777711
O 4.443010 2.990943 5.626241
O 4.327548 6.502794 6.315103
O 1.615389 2.722788 0.157612
O 1.342696 6.288085 0.748456
O 3.952744 8.350458 3.881471
O 4.368267 5.484657 3.515096
O 4.231018 1.640389 0.686001
O 4.190221 7.338388 1.261772
O 4.113160 5.280785 -1.269872
O 4.367270 8.075785 -1.546339
