18

V 0.000000 3.079700 3.757927
V 2.312928 0.000000 0.156816
C 0.040795 0.872830 5.720895
C 2.353723 2.206870 2.119785
C 2.272132 3.952530 5.709702
C 4.585060 5.286570 2.108592
O 0.446127 1.380340 4.619924
O 0.883367 0.849763 6.739480
O 1.175259 2.674812 2.215906
O 1.137669 5.754512 1.698837
O 1.429561 3.929463 4.691118
O 1.866801 4.460040 6.810674
O 2.759055 1.699360 1.018813
O 3.196295 2.229937 3.138369
O 3.488186 0.404888 6.130650
O 3.450597 3.484588 5.613581
O 3.742488 5.309637 1.090007
O 4.179729 4.779060 3.209563
