72

V 2.264622 3.123792 2.020151
V 2.264622 1.286014 4.684147
V 6.731684 5.695820 4.684147
V 6.731684 7.533597 2.020151
V 11.260928 1.286014 3.307841
V 11.260928 3.123792 0.643845
V 15.727990 5.695820 3.307841
V 15.727990 7.533597 0.643845
Si 0.453576 5.882866 1.615479
Si 0.453576 7.346551 4.279475
Si 4.025379 5.866400 2.933683
Si 4.025379 7.363017 0.269687
Si 4.970927 1.456594 2.933683
Si 4.970927 2.953212 0.269687
Si 8.542730 1.473060 1.615479
Si 8.542730 2.936745 4.279475
Si 9.449882 5.882866 1.048517
Si 9.449882 7.346551 3.712513
Si 13.021685 5.866400 5.058305
Si 13.021685 7.363017 2.394309
Si 13.967233 1.456594 5.058305
Si 13.967233 2.953212 2.394309
Si 17.539036 1.473060 1.048517
Si 17.539036 2.936745 3.712513
O 0.991285 6.778551 0.374750
O 0.991285 6.450867 3.038746
O 1.206908 1.620348 1.028942
O 1.206908 2.789458 3.692938
O 1.034629 4.371440 1.436469
O 1.034629 0.038365 4.100466
O 3.302328 1.597558 3.003016
O 3.302328 2.812248 0.339020
O 3.487670 0.056207 0.030348
O 3.487670 4.353598 2.694339
O 3.500553 6.780614 1.694733
O 3.500553 6.448803 4.358729
O 5.495753 2.038997 4.358729
O 5.495753 2.370809 1.694733
O 5.508636 4.466013 0.030348
O 5.508636 8.763404 2.694339
O 5.693978 6.007364 3.003016
O 5.693978 7.222053 0.339020
O 7.961677 8.781246 1.436469
O 7.961677 4.448171 4.100466
O 7.789398 6.030154 1.028942
O 7.789398 7.199264 3.692938
O 8.005021 2.041061 3.038746
O 8.005021 2.368745 0.374750
O 9.987591 6.450867 4.953243
O 9.987591 6.778551 2.289247
O 10.203215 1.620348 1.635054
O 10.203215 2.789458 4.299050
O 10.030935 4.371440 1.227527
O 10.030935 0.038365 3.891523
O 12.298634 1.597558 4.988972
O 12.298634 2.812248 2.324976
O 12.483976 0.056207 2.633648
O 12.483976 4.353598 5.297649
O 12.496859 6.448803 3.633259
O 12.496859 6.780614 0.969263
O 14.492060 2.038997 3.633259
O 14.492060 2.370809 0.969263
O 14.504942 4.466013 2.633648
O 14.504942 8.763404 5.297649
O 14.690284 6.007364 4.988972
O 14.690284 7.222053 2.324976
O 16.957983 8.781246 1.227527
O 16.957983 4.448171 3.891523
O 16.785704 6.030154 1.635054
O 16.785704 7.199264 4.299050
O 17.001327 2.041061 4.953243
O 17.001327 2.368745 2.289247
