76

Li 2.272321 1.900569 2.456949
Li 2.272321 6.815640 6.905623
Li 3.966686 2.457535 6.905623
Li 3.966686 6.258674 2.456949
Li 8.511328 2.457535 6.440399
Li 8.511328 6.258674 1.991725
Li 10.205692 1.900569 1.991725
Li 10.205692 6.815640 6.440399
Fe 1.385846 2.199143 8.534986
Fe 1.385846 6.517066 4.086312
Fe 4.853161 6.557248 8.534986
Fe 4.853161 2.158961 4.086312
Fe 7.624852 2.158961 0.362362
Fe 7.624852 6.557248 4.811036
Fe 11.092168 2.199143 4.811036
Fe 11.092168 6.517066 0.362362
S 0.000000 3.980187 2.224337
S 0.000000 4.736022 6.673011
S 1.827555 0.882368 5.378616
S 1.827555 7.833841 0.929942
S 4.411452 3.475737 0.929942
S 4.411452 5.240473 5.378616
S 6.239007 0.377917 6.673011
S 6.239007 8.338292 2.224337
S 8.066562 3.475737 3.518732
S 8.066562 5.240473 7.967406
S 10.650459 0.882368 7.967406
S 10.650459 7.833841 3.518732
O 0.424702 1.186468 5.125397
O 0.424702 7.529741 0.676723
O 0.710348 4.787413 3.226258
O 0.710348 3.928796 7.674933
O 1.005928 3.099763 1.552685
O 1.005928 5.616446 6.001359
O 2.018082 0.607485 0.974028
O 2.018082 8.108724 5.422702
O 2.279459 1.448076 6.689622
O 2.279459 7.268133 2.240948
O 2.690909 7.270199 8.740808
O 2.690909 1.446010 4.292134
O 3.548098 2.912094 8.740808
O 3.548098 5.804115 4.292134
O 3.959548 5.806181 6.689622
O 3.959548 2.910028 2.240948
O 4.220925 3.750620 5.422702
O 4.220925 4.965590 0.974028
O 5.233079 1.258342 6.001359
O 5.233079 7.457868 1.552685
O 5.528658 0.429308 3.226258
O 5.528658 8.286901 7.674933
O 5.814305 5.544572 5.125397
O 5.814305 3.171637 0.676723
O 6.663708 3.171637 3.771951
O 6.663708 5.544572 8.220625
O 6.949355 0.429308 1.222416
O 6.949355 8.286901 5.671090
O 7.244934 1.258342 7.344663
O 7.244934 7.457868 2.895989
O 8.257088 3.750620 7.923320
O 8.257088 4.965590 3.474646
O 8.518465 2.910028 2.207726
O 8.518465 5.806181 6.656400
O 8.929915 2.912094 4.605214
O 8.929915 5.804115 0.156540
O 9.787105 1.446010 0.156540
O 9.787105 7.270199 4.605214
O 10.198555 1.448076 6.656400
O 10.198555 7.268133 2.207726
O 10.459932 0.607485 3.474646
O 10.459932 8.108724 7.923320
O 11.472086 3.099763 2.895989
O 11.472086 5.616446 7.344663
O 11.767665 3.928796 5.671090
O 11.767665 4.787413 1.222416
O 12.053312 1.186468 8.220625
O 12.053312 7.529741 3.771951
