12

Li 2.577600 2.998304 3.489543
Li 7.716021 6.140736 6.632569
Li 12.904736 9.308753 9.799399
Cr 15.449890 9.445386 9.446104
Cr 5.170868 6.004103 6.985864
Fe 10.310386 6.301931 6.301931
O 3.776708 3.049116 3.304853
O 8.985358 6.227497 6.481418
O 1.378493 2.947491 3.674234
O 14.176439 9.391468 9.642306
O 6.444334 6.058030 6.789672
O 11.635415 9.222001 9.950560
