38

Li 0.337259 11.151568 0.001361
Li 0.337259 4.034727 1.484250
Ti 2.595861 12.309374 1.508656
Ti 2.590705 12.318579 4.434638
Ti 2.590705 5.201738 2.993417
Ti 2.595861 5.192533 5.919399
Ti 2.273764 9.634398 2.973676
Ti 2.461345 9.501332 5.936270
Ti 2.461345 2.384492 1.491785
Ti 2.273764 2.517558 4.454379
Ti 0.007505 7.167081 1.487418
Ti 4.931843 7.629212 4.453511
Ti 4.931843 14.746053 2.974544
Ti 0.007505 0.050241 5.940638
O 4.030845 13.705973 4.472468
O 4.021140 13.718925 1.469204
O 4.030845 6.589132 2.955587
O 4.021140 6.602084 0.016407
O 3.408298 11.387051 2.972280
O 3.449413 11.368294 5.941493
O 3.399703 8.858142 1.515727
O 3.400976 8.854447 4.427115
O 3.408298 4.270210 4.455775
O 3.449413 4.251453 1.486562
O 3.400976 1.737607 3.000940
O 3.399703 1.741301 5.912328
O 1.540542 13.036143 2.968726
O 1.456862 12.923581 0.000897
O 1.481729 10.498013 1.443111
O 1.480437 10.498332 4.501021
O 1.456862 5.806740 1.484714
O 1.540542 5.919302 4.459329
O 1.480437 3.381491 2.927034
O 1.481729 3.381172 0.042500
O 0.914339 8.145250 2.972167
O 0.924399 8.152077 0.000624
O 0.924399 1.035236 1.484987
O 0.914339 1.028423 4.455888
