67

Cr 1.185391 7.702028 16.455958
Cr 1.171577 0.284416 11.425248
Cr 1.170385 4.852199 11.427811
Cr 1.140498 7.769649 5.223778
Cr 1.119797 0.689167 16.987680
Cr 1.440020 5.410409 2.726717
Cr 1.458382 10.028354 2.866383
Cr 1.484146 2.577893 7.826060
Cr 2.068194 7.646986 13.105113
Cr 2.938325 2.582047 4.454272
Cr 3.589043 7.720949 9.946312
Cr 3.581175 4.895090 14.818675
Cr 3.538471 0.248554 14.866417
Cr 3.858669 0.663956 9.320804
Cr 3.850204 4.490948 9.347416
Cr 3.847975 5.817187 0.567965
Cr 3.792184 5.466805 6.151139
Cr 3.802046 9.978492 6.216566
Cr 3.815514 2.534875 1.138364
O 0.240961 2.321883 0.045677
O 0.185129 6.332510 6.247563
O 0.201803 9.112363 6.356666
O 0.649656 6.455287 3.710701
O 0.533300 9.017288 3.821970
O 0.530561 1.273464 8.150276
O 0.530325 3.875493 8.161869
O 0.557437 0.028116 1.303536
O 0.393744 5.098973 1.425632
O 0.922542 7.699839 14.782401
O 0.936271 6.373332 12.263061
O 1.008320 9.046664 12.359362
O 1.804819 1.180895 3.614325
O 1.829382 3.992419 3.544809
O 1.881442 2.585507 6.222985
O 2.184965 5.082016 10.148138
O 2.199626 0.066640 10.152820
O 1.912831 9.137378 16.933549
O 2.252181 6.500387 16.867410
O 1.875542 1.294700 12.449325
O 1.937163 3.889903 12.447328
O 2.121681 1.029955 15.480521
O 2.314689 4.039503 15.242340
O 2.318892 7.722352 8.948702
O 2.926129 2.575498 8.912594
O 2.817106 6.185567 2.215443
O 2.793951 9.268129 2.497073
O 2.712461 6.436389 5.339625
O 2.724276 9.006728 5.378883
O 2.752885 1.335364 0.709283
O 3.103701 3.958792 0.689318
O 3.092832 0.128172 7.549466
O 3.104958 5.036355 7.582294
O 3.138386 7.739035 11.603725
O 3.044904 6.432832 13.932617
O 3.142433 9.117447 14.113130
O 4.071286 1.110414 5.277027
O 4.066768 4.063219 5.268480
O 4.068215 2.522934 2.800917
O 4.550548 5.290333 16.193303
O 4.605197 10.254487 16.279870
O 4.508225 6.342946 9.635813
O 4.521162 9.091540 9.641253
O 4.255854 1.264095 13.903724
O 4.490519 4.009095 13.878654
O 4.745815 1.030898 11.061301
O 4.756233 4.094780 11.074267
O 4.798616 7.527976 17.549857
