15

Li 2.931901 -0.000000 1.376587
Li 2.931901 -0.000000 3.415958
Li 2.931901 2.841133 4.836525
Ti 0.000000 0.000000 0.000000
Co 0.000000 0.000000 2.039371
Co 0.000000 2.841133 1.420566
Co 0.000000 2.841133 3.459938
O 1.280467 1.363005 1.370409
O 1.280467 1.363005 3.404710
O 1.280467 4.197080 2.787447
O 1.242059 4.189381 4.821058
O 4.621743 1.492884 4.851992
O 4.583335 1.485185 6.885603
O 4.583335 4.319260 6.268340
O 4.583335 4.319260 8.302641
