34

V 1.221178 1.679371 1.973481
V 3.144468 4.324289 5.081605
V 5.599151 7.699981 9.048485
Ni 7.517937 10.338706 12.149333
P 0.281841 5.746080 5.359080
P 4.108649 2.387748 7.488540
P 6.567203 6.935249 4.860519
P 2.183239 5.115605 9.292551
P 4.661969 9.662888 6.665333
P 8.476153 6.291521 8.802140
O 1.209694 2.810501 4.839704
O 2.555004 5.018971 3.568480
O 0.510508 7.207155 4.650532
O 4.320698 3.289607 4.658188
O 1.896010 5.305521 5.442915
O 0.208282 5.799345 6.537551
O 2.499421 1.741599 7.974406
O 3.710245 3.555650 6.546469
O 5.060828 5.808258 5.249114
O 1.960477 3.681926 8.918322
O 0.703180 5.689531 8.860483
O 3.116874 9.062247 5.750416
O 5.589085 3.098816 8.326932
O 8.140813 6.385804 5.395174
O 6.674779 8.253598 5.291079
O 3.777970 6.128065 8.907890
O 4.871863 8.410215 7.584347
O 6.242560 10.360157 6.262093
O 8.718880 6.228474 7.626605
O 6.878120 6.815840 8.601648
O 4.342520 8.667038 9.546035
O 8.325004 4.950718 9.555650
O 6.344651 7.018310 10.595592
O 7.503895 9.331099 9.255973
