35

Li 0.011615 0.015956 0.018751
Ti 1.269308 1.743794 2.049213
Ti 3.165525 4.348844 5.110527
Ti 5.605348 7.700708 9.049456
V 7.502178 10.306601 12.111761
P 0.285470 5.777173 5.335234
P 4.062850 2.353030 7.482549
P 6.585826 6.891285 4.834659
P 2.162081 5.161895 9.315334
P 4.726216 9.702367 6.667200
P 8.481192 6.250563 8.830470
O 1.223947 2.687769 4.931039
O 2.401294 5.071086 3.536584
O 0.517631 7.190909 4.606161
O 4.474686 3.368942 4.609164
O 1.871101 5.297692 5.586620
O 8.746161 10.457423 11.053634
O 2.455025 1.716835 7.931103
O 3.905237 3.626471 6.639672
O 5.061821 5.965457 5.271186
O 1.854136 3.728509 8.930841
O 0.624136 5.756914 8.784840
O 3.236204 9.152933 5.722928
O 5.591522 10.378022 11.018125
O 8.098874 6.302485 5.336976
O 6.923114 8.372947 12.252367
O 3.663269 6.146997 8.883570
O 4.967035 8.463931 7.532144
O 6.356437 10.326997 6.202350
O 8.743310 6.123425 7.679726
O 6.885981 6.705570 8.634283
O 4.358628 8.716817 9.538382
O 8.221898 4.801464 9.556177
O 6.312128 7.002013 10.615379
O 7.551365 9.314984 9.264626
