20

V 0.122541 8.206183 3.378703
V 2.178526 9.925422 0.965027
V 2.423608 2.256548 3.862327
V 4.479593 3.975787 1.448650
O 1.079504 9.705025 4.580087
O 1.221563 8.426580 2.166410
O 3.380571 3.755390 2.660944
O 3.522630 2.476945 0.247267
F 1.343630 11.007058 2.068043
F 0.957437 7.124547 4.481720
F 0.982786 5.092411 2.022299
F 1.052209 2.501415 1.971819
F 1.248858 3.589570 4.385496
F 1.318281 0.998574 4.435976
F 3.283853 11.183396 0.391378
F 3.353276 8.592400 0.441857
F 3.549925 9.680555 2.855534
F 3.619348 7.089559 2.805055
F 3.644697 5.057423 0.345634
F 3.258504 1.174912 2.759311
