14

Li 0.356440 3.399925 2.828959
Li 6.099770 -4.643661 2.454912
Nb 4.586520 -2.524341 0.631149
V 2.528563 0.357847 1.552149
V 3.945483 -1.626562 3.501671
V 1.910750 1.223100 4.557487
O 0.779399 2.807568 4.649248
O 1.436854 1.886795 2.205171
O 2.274903 0.713100 -0.211817
O 2.846825 -0.087882 3.581191
O 3.654791 -1.219446 1.478339
O 4.207840 -1.993997 -1.004353
O 4.995516 -3.097144 2.878525
O 5.710922 -4.099076 0.515176
