24

Cr 2.227610 4.355667 2.222219
Cr 7.732995 1.451889 2.486138
Ni 2.758390 1.451889 4.485782
Ni 7.202215 4.355667 0.222575
P 0.925201 1.451889 1.983563
P 4.007809 4.355667 4.308258
P 5.952796 1.451889 0.400099
P 9.035404 4.355667 2.724794
O 0.552545 4.355667 3.238026
O 1.063364 1.451889 3.494460
O 1.665891 0.230554 1.325300
O 1.665891 2.673224 1.325300
O 3.252656 5.526220 3.542777
O 3.252656 3.185113 3.542777
O 3.740895 4.355667 1.013240
O 4.474374 1.451889 0.678883
O 5.486232 4.355667 4.029474
O 6.219711 1.451889 3.695117
O 6.707950 0.281335 1.165580
O 6.707950 2.622443 1.165580
O 8.294714 3.134332 3.383057
O 8.294714 5.577002 3.383057
O 8.897241 4.355667 1.213897
O 9.408060 1.451889 1.470331
