12

Mn 10.199002 11.317697 18.131637
Mn 5.102654 4.274721 9.303708
Mn 5.104776 7.074366 11.339885
Cr 10.199573 8.516663 16.094061
O 0.027130 0.050553 0.707608
O 0.020457 2.826762 2.727217
O 5.080544 4.253353 7.448000
O 10.187493 8.510872 15.420093
O 5.141221 7.117522 9.560658
O 10.183096 11.308037 17.448305
O 5.094655 4.263745 8.626670
O 5.072565 7.044077 10.635066
