34

Li 0.503734 1.806091 4.553907
Li 5.544480 4.338705 7.733622
Li 4.161937 1.752041 3.005162
Li 9.202683 4.284655 6.184877
Cr 4.164237 1.544855 6.064789
Cr 5.542180 4.545891 4.673995
Si 1.788621 6.837367 7.956947
Si 2.515039 4.503163 6.137792
Si 2.314485 4.243985 3.575504
Si 1.419525 1.884432 1.741898
Si 8.286892 4.206314 8.996886
Si 7.391932 1.846761 7.163280
Si 7.191378 1.587583 4.600992
Si 7.917796 -0.746621 2.781837
O 0.048600 6.899347 7.781459
O 1.394754 3.225617 6.769796
O 2.441484 6.167757 6.769283
O 1.719531 4.402111 4.890839
O 1.884375 5.693462 3.063773
O 1.228823 2.672587 3.054190
O 4.151017 4.237979 6.067745
O 2.503033 1.062883 4.884583
O 6.839704 4.864562 9.116494
O 5.741462 2.030111 7.330528
O 3.964955 4.060635 3.408257
O 2.866713 1.226184 1.622290
O 7.203384 5.027863 5.854201
O 5.555400 1.852767 4.671039
O 8.477594 3.418158 7.684594
O 7.822042 0.397284 7.675011
O 7.986886 1.688635 5.847945
O 7.264933 -0.077011 3.969502
O 8.311663 2.865129 3.968988
O 9.657817 -0.808601 2.957325
