20

Li 0.000000 0.000000 3.894309
Li 5.028884 2.802409 6.122200
Li 2.560000 2.607144 0.143526
Li 2.651115 0.195265 5.991305
Li 2.468884 5.019023 2.084365
Li 0.091116 2.411879 1.953470
Mn 0.000000 0.000000 0.000000
Mn 2.560000 2.607144 4.037835
F 0.671903 0.494779 1.983135
F 0.782065 1.632698 7.264916
F 0.932838 1.737614 4.493853
F 1.627161 4.344758 7.332601
F 1.777935 4.239842 4.561538
F 1.888097 3.101922 2.054701
F 3.231902 2.112365 6.020970
F 3.342064 0.974446 3.514133
F 3.492838 0.869529 0.743069
F 4.187161 3.476673 3.581818
F 4.337935 3.581590 0.810755
F 4.448097 4.719509 6.092536
