84

Li -0.000077 0.000084 6.174047
Li 0.000144 0.000042 18.521253
Li -0.000077 0.000084 3.087005
Li 0.000144 0.000042 9.261905
Li 4.787572 0.011019 12.352781
Li 4.787572 0.011019 15.430377
Li 2.394287 5.274095 3.087357
Li 2.394555 5.273020 18.519772
Li 2.394555 5.273020 9.263386
Li 2.394287 5.274095 6.173696
Li 2.393123 5.271131 15.427951
Li 2.393123 5.271131 12.355207
Mn 0.132320 7.577474 4.630526
Mn 0.133996 7.576411 10.807611
Mn 0.133996 7.576411 16.975547
Mn 2.259295 2.307819 10.811705
Mn 2.259295 2.307819 16.971453
Mn 2.259745 2.308188 4.630526
Mn 2.527474 8.239472 1.542614
Mn 2.527474 8.239472 7.718439
Mn 2.524448 8.240133 13.891579
Mn 4.653974 2.970365 1.541058
Mn 4.653974 2.970365 7.719995
Fe 4.640079 2.971688 13.891579
P 0.433048 6.240934 1.542984
P 0.433048 6.240934 7.718069
P 0.427590 6.231734 13.891579
P 1.961057 0.972751 1.543114
P 1.961057 0.972751 7.717939
P 1.956068 0.992471 13.891579
P 2.826875 9.576271 4.630526
P 2.826937 9.576197 10.805148
P 2.826937 9.576197 16.978010
P 4.356579 4.306761 4.630526
P 4.362405 4.302593 10.815298
P 4.362405 4.302593 16.967860
O 1.017037 4.798776 1.543558
O 1.017037 4.798776 7.717495
O 1.002017 4.784716 13.891579
O 1.068689 6.972378 0.304114
O 1.068512 6.973168 2.781594
O 1.068512 6.973168 6.479458
O 1.068689 6.972378 8.956938
O 1.068541 6.964629 12.654673
O 1.068541 6.964629 15.128485
O 1.104791 4.262307 4.630526
O 1.110407 4.262039 10.802592
O 1.110407 4.262039 16.980566
O 1.289980 9.531415 4.630526
O 1.290291 9.531679 16.978529
O 1.290291 9.531679 10.804629
O 1.324917 1.701710 0.304096
O 1.323864 1.701888 2.781483
O 1.324917 1.701710 8.956957
O 1.309309 1.716558 12.654488
O 1.323864 1.701888 6.479570
O 1.309309 1.716558 15.128670
O 1.377216 10.070658 1.544281
O 1.377216 10.070658 7.716772
O 1.384116 10.084150 13.891579
O 3.410634 0.476149 4.630526
O 3.409844 0.477108 10.805481
O 3.409844 0.477108 16.977677
O 3.463388 8.846089 3.391583
O 3.463388 8.846089 5.869470
O 3.463751 8.846521 9.566001
O 3.463440 8.845488 15.739863
O 3.463751 8.846521 18.217157
O 3.463440 8.845488 12.043295
O 3.497468 1.016214 1.543669
O 3.497468 1.016214 7.717383
O 3.494950 1.034334 13.891579
O 3.684017 6.287475 1.543169
O 3.679330 6.289810 13.891579
O 3.684017 6.287475 7.717883
O 3.719946 3.577351 3.391453
O 3.719946 3.577351 5.869600
O 3.718864 3.571161 9.580707
O 3.718864 3.571161 18.202451
O 3.745069 3.566689 15.717859
O 3.745069 3.566689 12.065299
O 3.772183 5.750764 4.630526
O 3.770153 5.742475 10.813650
O 3.770153 5.742475 16.969508
