42

Li 4.382923 7.673430 6.621150
Li 3.421953 6.253773 3.736356
Fe 4.353517 1.634964 6.472942
Fe 4.319879 4.608370 1.336740
Fe 3.516916 0.158461 9.042688
Fe 3.493339 3.104163 3.882564
Fe 1.730067 6.076827 6.328943
Fe 1.755138 9.196577 1.246352
Fe 0.842648 7.830525 3.795066
Fe 0.858476 4.691884 8.875969
B 4.389106 4.701563 6.357429
B 4.374398 1.609008 1.374882
B 3.398787 0.051121 3.994766
B 3.456917 3.157220 8.968522
B 1.715692 9.221331 6.366157
B 1.678447 6.178997 1.305148
B 0.912520 4.681459 3.755729
B 0.956754 7.705407 8.826054
O 4.749359 4.693887 3.436628
O 4.844526 8.062167 8.647453
O 4.042098 1.983929 8.468973
O 3.924594 1.272136 4.489654
O 4.050426 8.096620 4.049441
O 4.300747 4.102568 9.582037
O 3.720625 5.864216 6.123581
O 3.514584 0.660788 0.791403
O 3.909287 3.463351 5.864589
O 3.798267 2.777099 1.890577
O 2.988179 5.908337 1.617123
O 3.088238 9.266465 6.794476
O 2.167442 0.089429 3.345304
O 2.143428 3.353902 8.861823
O 1.525463 6.493894 8.490454
O 1.413418 5.895157 4.182300
O 1.697460 3.571213 3.736817
O 1.776737 8.684406 9.411071
O 0.864825 5.195184 0.706836
O 0.965873 1.133715 6.508425
O 1.170878 8.015496 5.958789
O 1.106569 7.390740 1.624377
O 0.484904 1.325336 1.320898
O 0.396941 4.613322 6.928425
