18

V 0.822648 1.559281 3.083576
V 2.316508 4.386042 2.374961
V 1.988452 3.058587 -0.224932
V 4.106456 1.592531 3.780765
V 3.648788 0.257179 1.096710
V 5.272370 3.008393 0.536753
O 0.594731 5.180184 2.566024
O 1.106269 3.008540 1.565246
O 2.539550 2.960401 3.651641
O 2.613688 0.622639 2.691973
O 3.523882 4.055791 0.884230
O 3.520160 1.798930 -0.175247
O 5.030973 1.592042 1.990904
F 0.567728 1.748378 5.034956
F 1.963187 4.990874 -0.810596
F 3.958980 -0.351491 4.450136
F 5.518187 2.893020 -1.434364
F 5.553223 -0.361080 0.639402
