14

Li 0.686350 0.938386 1.102694
Li 2.934333 4.011857 4.714317
Mn 0.033752 2.551814 3.253840
Mn 2.932523 1.503714 3.873048
Mn 2.932523 4.009381 2.350154
Co 5.191869 7.098387 8.341286
O 1.540901 2.106740 2.475621
O 1.479781 2.023175 4.569538
O 1.479781 4.349357 3.155732
O 4.170908 3.376335 3.730585
O 1.698846 4.645471 5.695462
O 4.386046 3.673868 6.269476
O 4.386046 5.996657 4.857733
O 4.353952 5.952777 6.995085
