13

Li 5.178088 7.098955 8.342325
Mn 2.946972 1.523028 3.895511
Mn 2.946972 4.040182 2.379344
Mn 0.016716 2.540071 3.247702
Cr 2.947934 4.041502 4.749364
O 1.563938 2.144097 2.519632
O 4.160953 3.447234 3.815397
O 1.533234 4.359272 3.234471
O 1.533234 2.102003 4.594100
O 4.372731 3.713882 6.272501
O 4.372731 5.994842 4.898602
O 1.717432 4.635492 5.685478
O 4.350559 5.964446 7.009109
