26

Li 0.000000 0.000000 0.000000
Li 2.298081 4.339649 2.332289
Li 5.004531 2.893960 2.454309
Li 7.710981 1.448270 2.576329
Mn 2.805080 1.461881 4.735504
Mn 7.203982 4.326038 0.173114
P 1.022716 1.459185 1.999498
P 4.101363 4.362806 4.559330
P 5.907698 1.425113 0.349288
P 8.986346 4.328734 2.909119
O 0.442841 4.369155 3.208452
O 1.228192 1.406874 3.534254
O 1.753558 0.273514 1.207183
O 1.835111 2.615761 1.295333
O 3.362034 5.600224 3.941260
O 3.404112 3.129446 3.827869
O 4.073228 4.274736 1.306276
O 4.447687 1.442796 0.973574
O 5.561375 4.345123 3.935044
O 5.935834 1.513183 3.602342
O 6.647028 0.187695 0.967358
O 6.604950 2.658473 1.080749
O 8.173950 3.172158 3.613285
O 8.255504 5.514405 3.701435
O 8.780870 4.381046 1.374364
O 9.566221 1.418764 1.700166
