32

Li 3.718128 1.564492 10.192241
Li 1.194109 0.015187 9.281068
Li 3.738172 3.147892 7.288878
Li 1.207522 4.688808 6.380142
Li 3.734546 1.597715 4.698879
Li 1.210881 3.139970 3.786626
Li 3.734606 6.296024 1.791131
Li 1.192405 4.748178 0.881802
Fe 3.729245 6.228095 7.390601
Fe 3.724061 3.204355 1.869868
Fe 1.192223 3.105160 9.206309
Fe 1.206688 0.058511 3.686472
Si 3.753027 4.726126 10.085892
Si 1.235992 1.558279 6.500525
Si 3.770430 4.730729 4.577691
Si 1.227030 1.584438 0.987712
O 0.668240 1.589465 10.443706
O 0.345950 4.721142 10.084876
O 3.218043 6.106223 9.340909
O 3.248319 3.370900 9.258375
O 0.698814 2.933370 7.255903
O 0.727284 0.195187 7.307786
O 2.886063 1.560183 6.505007
O 3.218321 4.725757 6.133842
O 0.686640 1.562451 4.939491
O 0.363824 4.726816 4.572417
O 3.233242 3.353197 3.822168
O 3.263841 6.092911 3.765578
O 0.697307 0.204450 1.737097
O 0.722626 2.941131 1.815033
O 2.878385 1.588602 0.987821
O 3.199577 4.719189 0.633445
