62

Li 1.411373 4.481900 1.798662
Li 2.889129 10.402100 3.377708
Li 5.711876 1.438301 1.234501
Li 7.189632 7.358502 2.813548
Ni 0.000000 0.000000 0.000000
Ni 4.300503 5.920201 -0.564160
H 1.202988 9.538047 5.415339
H 0.281769 10.045811 1.961475
H 0.918071 0.711158 3.617761
H 1.962156 4.667084 5.052068
H 2.111246 7.455486 4.955219
H 1.831782 1.031630 1.616897
H 2.468721 6.951831 3.559472
H 2.189257 1.535286 0.221150
H 2.338347 10.587284 0.124301
H 3.382432 6.631359 1.558608
H 4.018734 4.125610 3.214894
H 3.097515 3.617846 -0.238970
H 5.503491 8.222555 4.851179
H 4.582272 7.714791 1.397315
H 5.218574 5.209042 3.053601
H 6.262659 1.253117 4.487908
H 6.411749 10.305116 4.391059
H 6.132285 4.888570 1.052737
H 6.769224 10.808771 2.995312
H 6.489760 4.384915 -0.343010
H 6.638850 7.173318 -0.439859
H 7.682934 11.129243 0.994448
H 8.319237 1.794590 2.650734
H 7.398018 2.302354 -0.803130
S 0.664849 7.491919 1.525429
S 3.635654 1.571719 3.650941
S 4.965352 10.268683 0.961269
S 7.936157 4.348482 3.086780
O 0.711991 4.833406 3.909848
O 8.587605 10.987513 0.647089
O 1.564686 10.431299 5.192936
O 1.049478 8.662698 2.365551
O 0.678482 7.843236 0.096918
O 1.414736 1.362143 0.778031
O 1.688455 6.404390 1.837732
O 2.612048 0.484190 3.338637
O 2.885766 7.282344 4.398338
O 3.622021 1.923035 5.079451
O 3.251025 2.742497 2.810812
O 2.735817 4.511098 -0.016566
O 4.313903 5.067313 3.400960
O 3.588512 10.753606 1.266522
O 5.012494 1.086795 3.345688
O 4.287103 6.773088 1.211249
O 5.865189 7.329303 4.628776
O 5.349980 9.097904 1.801391
O 4.978985 9.917366 -0.467242
O 5.715239 4.558057 0.213871
O 5.988958 11.356212 1.273572
O 6.912551 5.436011 2.774477
O 7.186269 10.478258 3.834178
O 7.922524 3.997166 4.515291
O 7.551528 3.177703 2.246652
O 7.036319 1.409102 -0.580727
O 0.013400 0.852888 3.965120
O 7.889015 7.006996 0.702362
