51

Li 0.922340 3.752200 2.876738
Li 1.846721 4.668286 0.378732
Li 2.674998 2.638381 4.855849
Li 3.642833 0.545809 3.166566
Li 4.605592 1.452312 0.736096
Li 5.523555 2.319683 4.451216
Li 6.456161 0.319982 2.687194
Li 7.416429 4.072094 -0.502954
Li 9.221335 2.894666 1.512889
Li 10.142345 3.801285 -0.990944
Li 11.019953 1.781987 3.405147
Li 12.052045 5.548789 0.211399
Ni 0.008975 0.023803 6.112239
Ni 1.838495 1.771851 1.205539
Ni 2.779934 5.534214 4.024675
Ni 3.687488 3.477918 2.358024
Ni 5.529792 5.226013 3.588268
Ni 6.441130 3.182230 1.911302
Ni 7.401268 1.192491 0.273382
Ni 8.302507 4.950531 3.073882
Ni 10.141919 0.930286 -0.178446
Ni 11.067991 4.691091 2.623339
Ni 12.009495 2.686065 0.996309
O 0.433587 0.588683 1.644326
O 0.463882 3.156653 1.094737
O 1.452598 1.159268 5.666393
O 1.401034 4.477544 4.591319
O 2.422408 2.261272 2.856214
O 2.460116 4.955177 2.319198
O 3.088323 0.296811 1.244427
O 3.111051 2.989605 0.708612
O 4.193429 0.834912 5.102231
O 4.112991 4.054173 4.056387
O 5.079185 2.072323 2.521177
O 5.096916 4.651663 1.903897
O 6.176311 2.661117 0.210119
O 6.884841 0.560713 4.737668
O 6.117632 5.739714 -0.933689
O 6.874872 3.795141 3.605412
O 7.663130 1.708064 1.938870
O 7.724766 4.424267 1.447486
O 8.787477 2.298980 -0.279187
O 8.758783 5.530016 -1.399901
O 9.696633 3.628584 3.228789
O 9.695264 6.112708 2.619472
O 10.722992 1.427723 1.458411
O 10.782911 4.158680 0.931816
O 11.507208 2.067725 -0.706963
O 11.519528 5.315799 -1.848376
O 12.264538 3.191764 2.667158
O 12.357852 5.924855 2.158538
