72

Li 1.400485 1.816323 5.532361
Li 1.400485 0.812920 13.522542
Li 1.783835 3.198332 2.476166
Li 1.783835 4.689396 10.466347
Li 2.290966 4.994967 4.412636
Li 2.290966 2.892761 12.402816
Li 2.576714 0.283106 7.572435
Li 2.576714 2.346136 15.562616
Li 3.567238 1.921666 3.667649
Li 3.567238 0.707576 11.657830
Li 3.315137 3.297370 6.401617
Li 3.315137 4.590358 14.391798
Li 5.039164 0.349884 0.572641
Li 5.039164 2.279359 8.562821
Li 5.361537 3.179559 11.601074
Li 5.361537 4.708169 3.610894
Li 6.231799 3.220770 -0.332823
Li 6.231799 4.666958 7.657357
Li 6.285427 2.014389 2.426544
Li 6.285427 0.614854 10.416725
Li 6.458882 2.936796 5.364872
Li 6.458882 4.950932 13.355053
Li 7.424802 0.455269 5.170327
Li 7.424802 2.173973 13.160508
Li 7.729195 4.720300 2.270122
Li 7.729195 3.167427 10.260303
Li 7.896350 0.575662 15.420917
Li 7.896350 2.053580 7.430736
Li 8.707403 0.251524 11.332345
Li 8.707403 2.377719 3.342165
Li 9.036352 4.821989 8.279866
Li 9.036352 3.065739 0.289685
Co 0.599002 0.843046 2.136230
Co 0.599002 1.786197 10.126410
Co 4.278874 3.424757 1.674005
Co 4.278874 4.462971 9.664186
Co 4.940052 0.789809 5.833228
Co 4.940052 1.839434 13.823408
Co 8.924068 4.243503 13.476759
Co 8.924068 3.644225 5.486578
O 0.350301 4.327644 2.134348
O 0.350301 3.560084 10.124529
O 1.471337 1.126909 11.570556
O 1.471337 1.502333 3.580376
O 1.466243 3.916372 5.826704
O 1.466243 3.971355 13.816885
O 1.195592 1.722085 0.715823
O 1.195592 0.907157 8.706003
O 3.555696 3.915221 8.176798
O 3.555696 3.972507 0.186618
O 3.212995 1.324844 13.887075
O 3.212995 1.304399 5.896894
O 3.455884 3.917293 3.240374
O 3.455884 3.970435 11.230555
O 4.433263 1.646631 1.818811
O 4.433263 0.982611 9.808992
O 5.110127 4.267439 5.759492
O 5.110127 3.620288 13.749672
O 5.778895 1.274315 12.279439
O 5.778895 1.354928 4.289258
O 5.999107 4.083151 1.658959
O 5.999107 3.804577 9.649140
O 6.046222 1.224422 15.087285
O 6.046222 1.404820 7.097104
O 7.949811 4.110652 6.950351
O 7.949811 3.777075 14.940532
O 8.048850 1.184179 9.757022
O 8.048850 1.445063 1.766842
O 7.811847 3.807595 12.114917
O 7.811847 4.080132 4.124736
O 8.700052 0.798327 13.434458
O 8.700052 1.830915 5.444277
