22

Li 1.691868 4.584946 10.655148
Li 4.341680 3.714282 4.697481
Li 4.774162 6.566925 7.926588
Fe 0.420782 0.578791 2.475487
Fe 5.178797 4.984498 9.467177
Fe 1.331619 1.831660 7.436327
Fe 2.668355 5.809368 6.143732
Fe 2.165279 2.978370 2.723925
Fe 2.980483 4.099696 7.671146
Fe 3.912178 5.381254 2.972706
O 0.663740 1.937260 4.010106
O 1.865880 1.542266 1.181269
O 0.278287 3.527735 2.588789
O 1.421345 3.169646 9.038084
O 2.846818 2.701270 6.063132
O 1.205749 4.944103 7.489818
O 3.969346 2.314943 2.847253
O 2.494224 4.504362 4.252508
O 3.211877 5.442634 9.274844
O 5.061860 3.677079 7.896144
O 3.754161 4.090377 1.468465
O 4.414459 5.047495 6.304618
