84

Li 0.000000 4.721434 4.082374
Li 0.000000 4.721434 10.149524
Li 0.000000 0.000000 12.146534
Li 0.000000 0.000000 4.053072
Li 0.000000 0.000000 8.101079
Li 5.382823 2.017748 2.033649
Li 5.382823 2.017748 8.046314
Li 5.382823 -2.703685 5.376402
Li 5.382823 -2.703685 0.194785
Li 5.382823 -2.703685 2.572969
Li 5.382823 -2.703685 7.871429
Li 5.382823 -2.703685 10.103349
Fe 0.018398 7.093438 10.138141
Fe 2.602229 5.727189 2.011952
Fe 10.747247 -3.057941 10.138141
Fe 2.685792 3.360978 6.084085
Fe 2.677664 1.014845 2.005319
Fe 5.437857 4.345185 10.147058
Fe 2.673454 -1.322398 6.067539
Fe 5.327789 -0.309689 10.147058
Fe 8.087982 3.020652 2.005319
Fe 8.079854 0.674518 6.084085
Fe 8.163417 -1.691693 2.011952
Fe 8.092191 5.357895 6.067539
Si 10.743921 1.694266 4.070566
Si 0.021725 2.341231 4.070566
Si 2.804074 5.721009 8.133478
Si 2.704804 3.401542 12.137447
Si 5.314579 4.383281 4.002742
Si 2.655896 1.011161 8.089744
Si 2.739232 8.063539 0.032399
Si 8.109750 3.024336 8.089744
Si 5.451066 -0.347784 4.002742
Si 8.060842 0.633955 12.137447
Si 7.961572 -1.685513 8.133478
Si 8.026413 -4.028043 0.032399
O 1.129951 7.901066 11.391631
O 1.044623 7.961847 4.906303
O 0.912905 6.124145 3.109787
O 1.340764 6.022800 9.150600
O 3.406616 7.030441 1.099402
O 3.337835 6.759399 7.089180
O 0.913228 3.202369 5.036046
O 2.208712 4.568075 0.868732
O 2.469176 4.576257 7.311335
O 1.244315 3.282908 11.098713
O 1.050695 1.314268 8.942890
O 4.383093 5.441327 3.113103
O 4.429826 5.586796 9.047486
O 1.044257 1.318833 3.214590
O 3.202866 2.308590 1.021678
O 4.196438 3.636299 4.859313
O 4.232869 3.562722 11.237033
O 3.252581 2.022429 7.134712
O 6.337359 5.183071 4.999249
O 2.229565 -0.134588 0.762811
O 6.505820 5.474764 11.163475
O 2.124008 -0.124610 7.266083
O 6.281862 3.467349 2.976970
O 4.179557 0.735468 9.039723
O 6.586088 3.300029 9.039723
O 4.483784 0.568148 2.976970
O 8.641638 4.160106 7.266083
O 4.259826 -1.439268 11.163475
O 8.536080 4.170085 0.762811
O 4.428287 -1.147574 4.999249
O 7.513064 2.013067 7.134712
O 6.532777 0.472775 11.237033
O 6.569208 0.399198 4.859313
O 7.562780 1.726906 1.021678
O 9.721389 2.716664 3.214590
O 6.335819 -1.551299 9.047486
O 6.382553 -1.405830 3.113103
O 9.714951 2.721229 8.942890
O 9.521331 0.752589 11.098713
O 8.296469 -0.540761 7.311335
O 8.556933 -0.532578 0.868732
O 9.852417 0.833127 5.036046
O 7.427811 -2.723902 7.089180
O 7.359029 -2.994944 1.099402
O 9.424881 -1.987303 9.150600
O 9.852740 -2.088648 3.109787
O 9.721023 -3.926351 4.906303
O 9.635694 -3.865569 11.391631
