14

Li 0.007313 0.026874 0.008550
La 0.733928 1.424565 2.705112
La 3.437677 0.087283 -0.032077
La 1.948247 3.717464 -0.011547
La 4.630008 2.392397 2.646882
Fe 2.687552 -1.330350 2.677396
O 1.367293 -0.672427 1.373282
O 1.346914 -0.671426 4.023212
O 4.027277 -1.988590 1.327715
O 4.008693 -1.992364 3.984793
O 0.965270 1.878181 5.379174
O 3.681192 0.502351 2.681500
O 1.762165 3.273409 2.676586
O 4.390633 1.936823 -0.015229
