28

Li 1.184072 5.964301 0.726634
Li 8.978008 -1.517676 0.016089
Li 3.049600 -0.504059 0.012093
Li 3.580294 2.464755 0.365139
Li 5.364131 3.709072 2.455592
Li 6.587059 1.891507 0.360239
Fe 2.323818 4.163638 2.445637
Fe 1.776705 1.193377 2.088066
Fe 4.258849 5.576188 0.738492
Fe 4.846740 0.742956 2.098026
Fe 7.141734 5.024541 0.736736
Fe 7.764232 0.178869 2.090798
Fe 8.416821 3.108925 2.451276
O 1.158132 5.728658 2.602581
O 0.579340 2.963187 2.268504
O 1.810927 1.074781 0.168642
O 2.578332 4.332109 0.562421
O 4.013182 5.392876 2.621711
O 3.432845 2.435401 2.268317
O 3.167849 -0.423244 1.932679
O 5.442490 4.004375 0.583346
O 4.787907 0.869000 0.205759
O 6.042623 -1.054192 1.916147
O 6.656391 1.837235 2.261996
O 7.334219 4.802198 2.623321
O 8.218704 3.356130 0.567081
O 7.767116 0.186135 0.186232
O 8.909026 -1.469088 1.927045
