88

Cr 2.322708 3.734819 5.250394
Cr 2.894694 3.881588 0.024584
Cr 4.328305 2.029929 7.863277
Cr 4.397906 5.239121 2.544387
Cr 5.831517 0.672396 5.343474
Cr 6.403503 0.525627 10.569284
Cr 11.048919 3.734819 0.068497
Cr 11.620905 3.881588 5.294306
Cr 13.054516 2.029929 8.093394
Cr 13.124117 5.239121 2.774503
Cr 14.557728 0.672396 10.613197
Cr 15.129714 0.525627 5.387387
P 0.923059 4.144934 2.429765
P 1.296610 2.967597 8.122977
P 3.103756 0.531705 5.118772
P 3.623908 0.628918 10.632377
P 5.102303 3.838110 5.313486
P 5.622455 3.740897 10.437663
P 7.429601 6.176789 2.804087
P 7.803152 0.935742 7.748655
P 9.649270 4.144934 2.889126
P 10.022821 2.967597 7.833694
P 11.829967 0.531705 0.200118
P 12.350119 0.628918 5.324294
P 13.828514 3.838110 0.005404
P 14.348666 3.740897 5.519008
P 16.155812 6.176789 2.514803
P 16.529363 0.935742 8.208016
O 0.302852 3.096318 1.544808
O 0.141975 5.543590 2.259837
O 0.893616 3.841749 3.925756
O 1.148841 3.720948 6.795085
O 1.487976 3.892486 9.317015
O 2.378975 1.867672 8.066236
O 2.240332 5.726231 5.296115
O 2.299374 1.790196 4.879156
O 2.381889 4.503998 1.959426
O 2.749088 5.842584 10.387718
O 2.858707 1.895021 0.316027
O 4.225214 0.317768 3.985476
O 4.101075 0.715496 6.354542
O 4.066065 3.999019 4.100418
O 4.026588 3.510624 6.456335
O 4.699623 0.301433 1.137445
O 4.660146 0.789827 9.419308
O 4.625136 3.924687 1.035652
O 4.500997 3.526959 9.304367
O 5.867504 5.104213 5.634918
O 5.977123 2.633392 5.068828
O 6.344322 1.294806 7.278316
O 6.426837 4.999388 10.198047
O 6.485878 2.517040 10.615005
O 6.347236 5.076864 2.747345
O 7.238235 0.683295 3.998125
O 7.577370 0.511757 1.476194
O 7.832595 0.632557 9.244646
O 8.584235 2.334398 7.578727
O 8.423359 6.305509 6.863698
O 9.029063 3.096318 3.774082
O 8.868186 5.543590 3.059053
O 9.619827 3.841749 1.393134
O 9.875051 3.720948 9.161587
O 10.214187 3.892486 6.639656
O 11.105185 1.867672 7.890436
O 10.966543 5.726231 0.022775
O 11.025585 1.790196 0.439734
O 11.108100 4.503998 3.359464
O 11.475299 5.842584 5.568953
O 11.584918 1.895021 5.002863
O 12.951425 0.317768 1.333414
O 12.827286 0.715496 9.602129
O 12.792276 3.999019 1.218473
O 12.752799 3.510624 9.500336
O 13.425834 0.301433 4.181446
O 13.386357 0.789827 6.537363
O 13.351347 3.924687 4.283239
O 13.227208 3.526959 6.652304
O 14.593715 5.104213 10.321754
O 14.703334 2.633392 0.250062
O 15.070533 1.294806 8.678355
O 15.153048 4.999388 5.758624
O 15.212089 2.517040 5.341666
O 15.073447 5.076864 2.571545
O 15.964446 0.683295 1.320766
O 16.303581 0.511757 3.842696
O 16.558805 0.632557 6.712025
O 17.310446 2.334398 8.377944
O 17.149570 6.305509 9.092973
