14

Li 0.724420 1.021662 1.199756
Li 5.193418 7.105902 8.323671
V 0.000000 2.584323 3.282254
V 2.958919 4.063782 4.761714
Cr 2.958919 1.479460 3.924367
Cr 2.958919 4.063782 2.316806
O 1.522470 2.138741 2.510755
O 1.527364 2.185452 4.689928
O 1.527364 4.426877 3.295665
O 4.199943 3.477477 3.849492
O 1.717895 4.650087 5.673935
O 4.390474 5.942112 4.833499
O 4.390474 3.700687 6.227762
O 4.395368 5.988823 7.012672
