76

Li 1.859115 6.344292 2.227364
Li 1.835068 6.837542 9.868226
Li 2.431356 1.944717 3.817671
Li 2.448007 2.449662 8.170013
Li 6.122174 6.293782 3.914028
Li 6.143311 6.763724 8.217436
Li 6.719310 1.935350 2.194933
Li 6.699474 2.439407 9.789478
Mn 2.120135 8.455445 7.412590
Mn 2.116950 4.701065 4.673526
Mn 2.144842 0.316020 1.373220
Mn 2.150851 4.082289 10.643668
Mn 6.398664 4.688206 1.414592
Mn 6.408337 8.435957 10.677150
Mn 6.450337 0.312971 4.640695
Ni 6.430210 4.058339 7.429289
P 0.312008 2.180175 6.016389
P 3.984001 6.548160 0.061753
P 4.587387 2.197354 11.992380
P 8.260398 6.589572 6.060610
P 0.901499 3.481263 1.798425
P 0.899950 0.936417 10.226693
P 3.366003 5.354310 7.793382
P 3.377637 7.848764 4.307167
P 5.189890 0.902637 7.764021
P 5.170354 3.435808 4.268831
P 7.654856 5.290872 10.310846
P 7.649394 7.819393 1.828045
O 0.511151 5.678500 5.122755
O 0.515457 7.571643 6.942276
O 0.633160 7.849865 1.953459
O 0.656865 5.321156 10.186975
O 1.262724 1.374666 6.986277
O 1.257630 2.919444 5.025103
O 1.336065 3.850306 0.372197
O 1.327829 0.535277 11.632575
O 1.333068 2.075517 2.200947
O 1.366764 2.365806 9.844711
O 1.508660 4.558591 2.751688
O 1.527288 8.658079 9.335336
O 2.751677 0.130699 3.284003
O 2.699858 4.287619 8.741520
O 2.837602 6.775091 8.175711
O 2.941959 6.423520 3.898499
O 2.939142 4.923951 6.377239
O 2.958327 8.225357 5.735395
O 3.067580 7.281811 1.044380
O 3.071099 5.793432 11.009262
O 3.626929 0.862184 7.870727
O 3.619832 3.464018 4.096703
O 3.790270 1.249638 0.909715
O 3.786006 3.150897 11.093688
O 4.792581 5.589251 0.953744
O 4.781110 7.511780 11.144765
O 4.875330 5.349435 7.950363
O 4.928998 7.864589 4.178939
O 5.527453 2.971348 1.012933
O 5.517864 1.436750 11.009819
O 5.608498 0.506129 6.331937
O 5.618788 3.863366 5.636042
O 5.626159 1.992025 3.857969
O 5.614636 2.300539 8.180903
O 5.799336 4.479526 3.271503
O 5.799045 8.583670 8.781344
O 7.027971 0.108133 2.714818
O 7.053782 4.238189 9.393784
O 7.173317 6.393066 2.221222
O 7.232729 6.730053 9.903399
O 7.262016 4.990199 11.764653
O 7.219434 8.226699 0.418301
O 7.342676 5.841024 7.012526
O 7.338995 7.378540 5.053072
O 7.912785 0.902844 10.094782
O 7.904284 3.485826 1.922362
O 8.092597 1.215092 5.080195
O 8.103093 3.086035 6.926657
