19

Li 0.739232 3.354422 1.173682
Li 3.433208 1.262251 -0.015604
Li 1.807534 0.557467 3.092166
Li 4.825293 1.419634 2.594881
V 3.979668 4.578205 0.606994
V 2.368321 3.654118 3.873412
V 5.681850 -1.100666 -0.746791
O 3.866142 4.707349 -1.333665
F 0.350140 5.928538 0.646851
F 0.522517 4.445232 4.239357
F 2.491353 4.534888 2.065014
F 2.329233 3.229849 -0.012937
F 1.083790 2.401825 2.893737
F 4.666359 2.777396 1.118817
F 1.785353 0.458528 5.133072
F 3.506364 2.071300 3.792992
F 3.328594 0.276691 1.727148
F 5.395902 0.778343 -0.418785
F 5.036707 -0.756595 3.282883
