32

Li 0.812676 4.061474 5.463472
Li 1.774140 0.972724 0.753885
Li 3.727753 3.551593 3.901237
Li 4.692585 1.481948 2.318344
Li 6.315790 3.673637 5.462407
Li 7.277595 1.605576 0.754935
Li 9.229260 4.185164 3.901484
Li 10.192640 1.095613 2.317746
Fe 1.833847 0.978097 3.889257
Fe 3.668805 3.557788 0.749603
Fe 7.336906 1.598463 3.890516
Fe 9.172734 4.177860 0.748686
Si 0.972019 3.563778 2.318693
Si 4.530545 0.983396 5.459369
Si 6.475496 4.173738 2.319630
Si 10.033725 1.593412 5.459802
O 0.568378 1.015072 5.460707
O 0.974044 1.910706 2.304504
O 1.786213 4.067921 3.678406
O 1.744985 4.096230 0.945741
O 3.757986 1.515201 4.085910
O 3.717176 1.488081 0.530645
O 4.529081 4.489710 5.452041
O 4.934241 3.592892 2.321797
O 6.072196 1.566207 5.462128
O 6.479833 0.667640 2.302900
O 7.289614 3.668123 3.678720
O 7.247769 3.642072 0.946117
O 9.260792 1.061745 4.085218
O 9.219245 1.087593 0.530254
O 10.029840 3.246784 5.449576
O 10.436453 4.142996 2.322116
