28

Li 1.709655 3.320393 1.278897
Li 3.634955 0.130070 3.839938
Li 7.054265 6.250578 1.278897
Li 8.979565 3.060254 3.839938
Co 0.894207 5.090557 3.831784
Co 4.450403 1.900233 1.270743
Co 6.238817 4.480414 3.831784
Co 9.795013 1.290090 1.270743
P 1.919934 0.128761 1.277043
P 3.424676 3.319085 3.838084
P 7.264543 3.061562 1.277043
P 8.769286 6.251886 3.838084
O 1.035155 1.382763 0.948558
O 1.264054 5.233797 0.664437
O 1.998285 3.509656 3.250289
O 1.996372 6.354060 2.813463
O 3.348238 3.163736 0.252421
O 3.346324 0.319332 0.689248
O 4.080556 2.043473 3.225478
O 4.309455 4.573087 3.509600
O 6.379765 1.807561 0.948558
O 6.608664 4.337175 0.664437
O 7.342895 6.061316 3.250289
O 7.340982 3.216912 2.813463
O 8.692848 0.026588 0.252421
O 8.690934 2.870992 0.689248
O 9.425166 1.146851 3.225478
O 9.654065 4.997885 3.509600
