38

Li 3.104521 6.228761 5.299114
Li 0.948547 5.019921 1.664909
Li 7.932982 -0.040104 4.999553
Li 5.777008 -1.248944 1.365348
Bi 5.991409 4.776313 0.085105
Bi 1.365686 2.182700 4.615628
Bi 7.515843 2.797117 2.048834
Bi 2.890121 0.203503 6.579357
S 2.105304 3.853008 6.977116
S 3.900954 4.859817 2.820636
S 8.120098 4.552887 4.805521
S 0.761431 0.426930 1.858941
S 4.980575 0.120000 3.843827
S 6.776225 1.126809 -0.312654
O 0.781344 7.260548 8.881880
O 0.760303 7.248751 4.965507
O 1.008151 3.985625 8.045577
O 3.013263 4.983480 6.830239
O 1.242331 3.959357 5.888893
O 4.193609 5.771691 3.705410
O 6.983831 4.657333 5.824734
O 3.071055 2.483541 7.038360
O 2.324483 4.597285 3.002119
O 4.128952 5.577867 1.588222
O 1.099915 1.358267 2.683243
O 3.890438 1.419724 3.799022
O 4.991091 3.560093 2.865440
O 7.781614 3.621558 3.981222
O 4.752577 -0.598050 5.076240
O 6.557047 0.382532 3.662344
O 5.810474 2.496275 -0.373898
O 1.897707 0.322481 0.839724
O 4.687920 -0.791875 2.959052
O 7.639199 1.020460 0.775569
O 5.868266 -0.003663 -0.165777
O 7.873378 0.994192 -1.381115
O 8.121226 -2.268934 1.698956
O 8.100186 -2.280731 -2.217418
