16

Li 0.000000 0.000000 2.459808
Li 3.012995 1.468724 3.945327
Li 3.012995 4.099501 3.048695
Ti 3.012995 4.099501 0.588887
Fe 0.000000 2.630778 1.563176
Fe 0.000000 0.000000 0.000000
Fe 3.012995 1.468724 1.485519
Fe 0.000000 2.630778 -0.896632
O 2.946498 2.839734 4.800732
O 5.855895 4.260561 6.103724
O 3.109399 5.319827 3.932276
O 0.002639 3.922776 2.329244
O 6.023351 4.276226 3.768147
O 2.916591 2.879176 2.165114
O 0.170096 3.938441 -0.006334
O 3.079492 5.359268 1.296658
