19

Li 1.972510 2.201591 5.506478
Li 1.141576 2.245515 3.304352
Li 3.911995 1.703720 3.199616
Li 3.081061 1.747645 0.997491
Co 0.521670 -0.081048 4.503792
Co 4.531901 4.030284 2.000176
Ni 0.000000 2.450609 1.056631
Ni 3.515734 4.237097 6.546606
Ni 1.537837 -0.287862 -0.042637
O 0.268304 1.080472 6.189258
O 0.565035 3.698365 5.136264
O 1.637483 3.428811 7.261022
O 1.078670 1.001125 1.578054
O 2.149587 0.731260 4.028164
O 2.903984 3.217975 2.475805
O 3.974902 2.948111 4.925915
O 3.416088 0.520425 -0.757053
O 4.488536 0.250870 1.367705
O 4.785267 2.868764 0.314711
