80

P 0.770761 2.364980 4.801208
P 2.286770 1.812511 11.704657
P 0.772718 6.341479 11.704215
P 3.310848 4.523108 1.671827
P 3.311136 4.523174 8.578182
P 2.286889 7.097841 4.796919
P 3.059269 8.152968 2.105245
P 6.875917 4.107117 4.797247
P 3.058564 9.463846 9.010192
P 6.875807 5.417974 11.702719
P 7.648247 6.472667 9.010589
P 6.624020 9.047490 12.135598
P 6.623831 9.047533 5.230044
P 9.163412 7.228563 2.102603
P 7.647939 11.757783 2.103625
P 9.162368 11.204559 9.008497
W 0.000258 3.702601 10.358356
W 9.934649 9.867801 3.449704
W 4.275337 2.137755 3.452336
W 5.659263 2.829576 10.357894
W 4.275585 7.038815 10.356847
W 5.659511 6.532060 3.450758
O -0.000020 1.792146 3.452849
O 0.044766 2.029031 0.881662
O 0.913404 2.619465 11.524753
O 2.070499 1.035429 10.358601
O 2.318412 1.197946 7.786007
O 2.497427 2.039391 4.618598
O 0.909073 3.724988 4.497880
O 1.851626 3.828511 9.261417
O 0.910970 5.000654 11.402587
O 0.043455 6.578866 7.785553
O 0.000040 6.810911 10.357732
O 0.913732 6.106833 4.617172
O 3.351521 3.279412 2.355376
O 3.776422 2.676823 11.402965
O 1.851457 5.022202 2.355451
O 3.310192 4.522909 0.210963
O 3.310858 4.522545 7.117110
O 3.351839 5.772720 9.260799
O 5.247943 3.412946 4.496536
O 4.730400 3.968744 9.261253
O 2.497566 6.899513 11.523063
O 2.070887 7.845765 3.450854
O 2.318491 7.715377 0.877667
O 2.363754 7.777807 6.023788
O 3.776968 6.433434 4.496009
O 4.730300 5.268103 2.354420
O 3.409917 8.145775 9.190672
O 5.248300 5.894282 11.401671
O 6.524901 4.053085 11.523383
O 2.364420 9.746762 12.929143
O 7.570736 3.823619 0.878309
O 7.864041 3.931769 3.451243
O 3.409699 9.517748 2.284622
O 4.686736 7.676512 2.405754
O 6.525060 5.425058 4.616974
O 5.204438 8.302731 11.453378
O 6.158615 7.137831 9.312093
O 7.570607 5.792847 7.784521
O 7.616317 5.855345 12.929924
O 7.864398 5.724938 10.357055
O 7.437590 6.671048 2.284459
O 5.204369 9.602028 4.546779
O 4.686577 10.157951 9.311483
O 6.583516 7.798103 4.546737
O 6.624874 9.047779 13.596987
O 6.624010 9.047881 6.690564
O 8.083282 8.548081 11.452513
O 6.157929 10.894101 2.405013
O 6.582999 10.291176 11.452560
O 9.021910 7.463507 9.190447
O 9.890618 6.990397 6.021099
O 9.024613 8.569725 2.405128
O 8.083152 9.742403 4.546451
O 9.024305 9.845243 9.311064
O 7.437212 11.531307 9.189739
O 7.616356 12.372688 6.022082
O 9.021066 10.950805 2.283501
O 9.891204 11.541120 12.927462
