25

V 0.002789 7.967150 3.708695
V 2.477632 4.125501 -0.688092
P 0.485906 2.671442 1.665567
P 1.978445 6.885725 1.200942
P 2.969920 1.383925 4.485853
P 4.472649 5.567848 4.105155
H 2.086494 3.555292 2.500245
H 2.871023 4.683061 3.262490
H 4.648834 0.366173 5.485103
O 0.823148 4.604390 5.897102
O 0.102441 1.265900 2.187525
O 1.087569 6.823573 2.601070
O 1.116291 3.458259 2.815054
O 1.598787 0.706588 4.221253
O 2.725183 2.816432 4.997420
O 1.282257 7.701662 0.268340
O 1.534468 2.687814 0.450456
O 3.424280 5.556029 5.320507
O 3.631564 0.539229 5.507942
O 2.242568 5.416119 0.780463
O 3.386360 7.500919 1.560152
O 3.842040 4.783996 2.954148
O 3.903371 1.447732 3.154902
O 4.855691 6.973586 3.585596
O 4.137750 3.634150 -0.131547
