20

Li 0.543508 7.055384 3.204168
Li 4.687282 3.957310 2.465266
Co 3.759386 6.802396 3.034048
Co 5.123297 12.511320 3.552154
Si 2.121329 2.685025 0.648299
Si 1.599462 4.182988 3.317378
Si 0.845097 8.886805 0.837099
Si 3.915777 8.596589 0.759209
O 0.592209 1.665000 0.741012
O 0.240827 10.126332 1.677109
O 0.706340 8.836594 -0.726484
O 3.275854 1.795803 0.224358
O 2.530155 3.544916 2.104702
O 1.912629 5.857622 3.286578
O 2.172208 3.828808 4.647914
O 2.449800 9.022006 1.187808
O 3.991318 7.195726 1.357997
O 4.145172 8.410533 -0.816976
O 5.172669 5.891232 3.239544
O 5.173729 9.858378 1.409822
