100

Li 9.034529 1.971920 0.872572
Li 5.675647 1.971920 8.339129
Li 4.892820 0.002847 3.608677
Li 4.892820 3.940993 3.608677
Li 4.913964 7.884834 11.324437
Li 4.913964 3.946688 11.324437
Li 4.131137 5.915761 6.593985
Li 0.772255 5.915761 14.060542
Li 9.796212 7.884834 3.857880
Li 9.796212 3.946688 3.857880
Li 0.010572 0.002847 11.075234
Li 0.010572 3.940993 11.075234
Cr 7.335817 1.971920 3.733950
Cr 7.374358 1.971920 11.200507
Cr 2.432426 5.915761 3.732606
Cr 2.470966 5.915761 11.199163
Si 9.549042 5.915761 6.004859
Si 9.572088 5.915761 8.942412
Si 7.784203 4.414854 1.502197
Si 7.784203 7.416668 1.502197
Si 7.810917 7.440308 13.438175
Si 7.810917 4.391214 13.438175
Si 6.899259 7.440308 5.971618
Si 6.899259 4.391214 5.971618
Si 6.925972 4.414854 8.968754
Si 6.925972 7.416668 8.968754
Si 5.138088 5.915761 1.475855
Si 5.161134 5.915761 13.471416
Si 4.668696 1.971920 13.457259
Si 4.645650 1.971920 1.461698
Si 2.880811 3.472828 5.964360
Si 2.880811 0.471013 5.964360
Si 2.907525 0.447374 8.961496
Si 2.907525 3.496467 8.961496
Si 1.995867 0.447374 1.494939
Si 2.022580 3.472828 13.430917
Si 2.022580 0.471013 13.430917
Si 1.995867 3.496467 1.494939
Si 0.257742 1.971920 8.928255
Si 0.234696 1.971920 5.990702
O 9.329850 1.971920 7.464720
O 9.073540 1.971920 4.731617
O 9.106207 1.971920 10.194195
O 8.522742 4.621085 5.911064
O 8.522742 7.210437 5.911064
O 8.552594 4.612069 9.046645
O 8.552594 7.219453 9.046645
O 8.465363 5.915761 1.626754
O 8.531421 5.915761 13.417597
O 8.327597 0.585171 2.572916
O 8.327597 3.358669 2.572916
O 8.297628 0.485400 12.246796
O 8.297628 3.458441 12.246796
O 8.206101 3.781228 0.010184
O 8.206101 0.162612 0.010184
O 6.504075 3.781228 7.476741
O 6.504075 0.162612 7.476741
O 6.382578 0.585171 10.039473
O 6.412548 0.485400 4.780239
O 6.412548 3.458441 4.780239
O 6.382578 3.358669 10.039473
O 6.178754 5.915761 5.951040
O 6.244813 5.915761 9.093311
O 6.157581 7.219453 1.580088
O 6.187433 7.210437 13.377621
O 6.187433 4.621085 13.377621
O 6.157581 4.612069 1.580088
O 5.603969 1.971920 2.727638
O 5.636635 1.971920 12.198174
O 5.380325 1.971920 14.931277
O 4.426459 5.915761 0.001837
O 4.170148 5.915761 2.734940
O 4.202815 5.915761 12.205476
O 3.649202 0.668229 13.353026
O 3.649202 3.275612 13.353026
O 3.619350 0.677244 1.555493
O 3.619350 3.266596 1.555493
O 3.628029 1.971920 8.982074
O 3.561971 1.971920 5.839803
O 3.394236 4.429241 10.152875
O 3.394236 7.402281 10.152875
O 3.424205 4.529012 4.893641
O 3.424205 7.302510 4.893641
O 3.302709 7.725069 7.456373
O 3.302709 4.106453 7.456373
O 1.600683 7.725069 14.922930
O 1.600683 4.106453 14.922930
O 1.509156 4.429241 2.686318
O 1.509156 7.402281 2.686318
O 1.479187 4.529012 12.360198
O 1.479187 7.302510 12.360198
O 1.275362 1.971920 1.515517
O 1.341421 1.971920 13.306360
O 1.284041 3.266596 9.022050
O 1.254190 0.668229 5.886469
O 1.254190 3.275612 5.886469
O 1.284041 0.677244 9.022050
O 0.700577 5.915761 4.738919
O 0.733243 5.915761 10.201497
O 0.476933 5.915761 7.468394
