24

Mn 2.207456 2.577238 4.541353
Mn 4.081953 2.546375 1.579052
Mn 4.302429 -0.151994 8.845632
Mn 5.161483 1.123551 6.234828
Mn 5.142690 -1.546908 6.315556
Te 1.005601 3.988023 1.825480
Te 1.016876 1.337620 1.872336
Te 2.050975 -0.118884 6.548921
O 1.072599 4.027121 5.548635
O 0.196167 2.686377 3.025580
O 1.803224 2.634984 0.665062
O 0.139499 0.029133 2.987468
O 0.159681 0.011976 7.669299
O 1.059619 1.267555 5.644462
O 2.786104 3.792838 2.801016
O 2.805100 1.334830 2.838554
O 1.910061 -0.042838 0.801241
O 4.265313 2.513053 5.370473
O 3.187803 0.946631 7.662313
O 3.229645 -1.324695 7.621675
O 3.907568 -0.189888 5.356035
O 5.313862 1.188832 0.502668
O 5.857074 -0.254358 7.265470
O 5.292011 -1.470170 0.565871
