22

Li 0.219713 3.494730 3.487137
Li 0.200011 6.346355 3.488530
Li 1.660177 1.644760 3.251239
Li 1.660098 1.644740 0.921011
Li 3.120356 3.490000 3.488552
Li 3.100509 6.341408 3.487136
Li 3.517185 0.207472 1.167856
Li 3.552551 3.064567 1.169860
Li 4.980226 4.934083 1.413300
Li 4.980306 4.934142 3.743695
Li 6.407935 0.256855 1.169887
Li 6.443201 3.113884 1.167842
Ni 1.660051 4.917951 1.127253
Ni 4.980180 1.660701 3.518604
O 0.107180 1.667338 4.463831
O 1.632534 0.086278 2.142514
O 1.687794 3.203190 2.142546
O 3.212988 1.622109 4.463883
O 3.433206 4.901212 0.197348
O 4.946680 6.487255 2.519066
O 5.013813 3.380877 2.519105
O 6.527320 4.966979 0.197353
