30

Li 4.833737 -1.447444 5.340892
Li 4.817780 0.957521 5.384341
Li 2.021504 -0.091869 5.313753
Li 3.781917 2.366664 0.643452
Li 1.021691 1.268223 0.572624
Li 1.037409 3.716930 0.617650
Mn 4.838217 -1.508491 2.777011
Mn 4.838159 1.019533 2.814135
Mn 1.950676 -0.096981 2.742530
Mn 3.864273 2.344369 7.567894
Mn 0.976372 1.228424 7.496292
Mn 0.970021 3.753650 7.549291
Ni 3.860572 -0.207289 0.131073
Ni 1.914754 2.439726 4.891052
O 4.867951 -1.604562 8.571082
O 5.636319 -0.289990 1.651215
O 4.894762 1.087158 8.635033
O 4.053340 -0.204694 3.921445
O 3.030510 -1.300999 1.614097
O 3.017999 1.009128 1.632233
O 3.973249 2.340748 3.893404
O 1.797428 -0.111407 8.572525
O 2.837713 1.254382 6.380914
O 2.809961 3.554877 6.416829
O 5.720495 2.135156 6.509236
O 2.025182 2.554331 8.681950
O 5.633385 2.253656 1.762266
O 0.874428 1.144206 3.830905
O 0.199868 2.549694 6.379738
O 0.876607 3.825105 3.849097
