18

Li 0.594144 0.525001 4.138607
V 1.336339 3.957550 4.709124
V 2.606944 4.993204 1.967757
V 4.130104 0.872741 3.463809
V 5.313088 2.005144 0.607916
Cu 6.125736 5.412861 1.235046
O 0.168861 5.369540 4.453877
O 0.528893 2.502104 4.707889
O 1.336674 6.305721 2.010965
O 2.476035 3.957004 3.379137
O 2.576139 0.241584 3.522603
O 2.322138 4.007677 0.631088
O 4.256005 1.991603 4.762946
O 4.206282 5.653526 1.896209
O 4.289914 1.834905 1.976468
O 5.421224 -0.429994 3.716042
O 6.154912 3.501896 0.619959
O 6.492720 0.612537 0.566917
