24

Mn 1.925978 2.351142 4.301791
Mn 3.842856 -0.275496 8.690149
Cr 0.910029 3.672320 1.824273
Cr 0.914357 1.168338 1.810488
Cr 1.867325 -0.135896 6.218883
Co 3.765404 2.219101 1.925603
Co 4.758643 0.881649 6.332533
Co 4.744882 -1.588838 6.305958
O 0.974329 3.646790 5.359488
O 0.278128 2.461765 3.010239
O 1.985939 2.347850 0.874776
O 5.649716 2.081654 2.849680
O 5.658407 2.059009 7.263975
O 0.959949 1.182496 5.370356
O 2.768755 3.372509 3.045213
O 2.767314 1.208127 3.038315
O 1.989257 -0.143380 0.969221
O 3.877926 2.226527 5.381069
O 3.006239 0.881311 7.449176
O 2.997806 -1.291596 7.418116
O 3.893879 -0.265236 5.337116
O 4.788597 0.889947 0.951896
O 5.513605 -0.409450 7.432920
O 4.788942 -1.571011 0.941669
