56

Li 0.021191 0.023783 0.008012
Li 2.098807 2.068972 2.053131
Li 2.143530 6.236031 6.204031
Li 4.216787 8.277217 4.161027
Li 4.261646 4.131209 8.291177
Li 6.339194 2.087238 6.249526
Li 6.381186 6.217331 2.098220
Li 8.457157 4.175759 4.137861
Mn 1.077743 1.048094 5.176906
Mn 1.057604 3.129106 7.249106
Mn 1.042637 5.197119 1.030914
Mn 3.197029 3.106588 5.181767
Mn 3.182173 5.174751 3.098293
Mn 3.163508 7.254817 1.026833
Mn 5.317078 3.109732 3.122387
Mn 5.299110 1.024971 1.053619
Mn 5.283413 7.255005 7.273973
Mn 7.435313 1.048990 3.119981
Mn 7.420838 7.280777 5.204489
Mn 7.402699 5.196680 7.273602
Cr 1.059986 7.266057 3.110448
Cr 3.180315 1.039360 7.263402
Cr 5.301467 5.186511 5.193498
Cr 7.417615 3.119153 1.041107
O 0.899005 0.991389 3.240799
O 1.097611 7.454888 5.097721
O 0.888770 5.110429 7.357595
O 1.172310 1.162597 7.118813
O 0.944245 3.257514 0.922877
O 1.232296 3.022594 5.257435
O 1.024702 5.279538 2.924443
O 1.219831 7.134386 1.083600
O 3.021081 1.170052 5.235334
O 3.214184 3.025306 7.075978
O 3.007352 5.281072 1.107394
O 3.295319 5.045247 5.073953
O 3.068204 7.140255 2.968309
O 3.351031 3.193975 3.205772
O 3.145531 0.848870 0.948665
O 3.340406 7.313223 7.393876
O 5.140071 3.159021 5.058677
O 5.338549 5.003402 3.208061
O 5.127978 7.331381 0.944648
O 5.411976 3.004063 1.183999
O 5.189381 0.895428 7.389940
O 5.466578 1.132270 3.033999
O 5.264817 7.174897 5.380066
O 5.460616 5.319351 7.218123
O 7.258966 2.984637 3.066432
O 7.452086 1.130442 1.225676
O 7.251190 7.172913 7.188139
O 7.531661 7.410436 3.235150
O 7.308429 5.306948 5.334394
O 7.591113 0.968887 5.094055
O 7.382772 3.302354 7.356389
O 7.578987 5.145282 0.906833
