22

K 2.351975 2.532745 1.351531
K 7.657153 5.638433 4.172114
Mn 3.544993 4.789984 4.221613
Mn 6.464135 1.684296 1.302033
P 4.430651 1.654493 3.972914
P 5.578477 4.760182 1.550732
C 1.125206 4.633855 3.900177
C 8.883922 1.528166 1.623469
O 0.086189 1.367211 1.687147
O 1.704965 4.697969 5.073804
O 2.031603 4.737976 2.928456
O 3.447154 0.476295 4.252588
O 3.474569 2.861339 4.232325
O 4.365571 4.735778 0.632073
O 4.868250 1.661562 2.478967
O 5.140878 4.767251 3.044679
O 5.643557 1.630089 4.891573
O 6.534559 5.967028 1.291321
O 6.561974 3.581983 1.271058
O 7.977525 1.632288 2.595190
O 8.304163 1.592280 0.449841
O 9.922939 4.472900 3.836499
