16

Li 0.000000 3.142845 0.631012
Li 3.144055 3.230034 -0.982280
Li 3.144055 0.087189 -1.613292
Li 3.144055 3.230034 -3.182448
Mn 0.000000 3.142845 -1.569156
Mn 3.144055 0.087189 0.586876
Sn 0.000000 0.000000 2.200168
Sn 0.000000 0.000000 0.000000
O 1.454458 4.821281 -3.125573
O 1.436952 1.519727 0.672485
O 1.505323 4.873536 -0.992433
O 4.807662 4.982614 -4.836603
O 1.480447 1.477455 2.872043
O 4.782786 1.586533 -0.972128
O 4.851157 4.940342 -2.637046
O 4.833651 1.638788 1.161013
