22

Li 0.761802 2.557065 7.463531
Li 1.690156 2.961726 2.508416
Li 3.235767 3.782394 7.474074
Li 4.159771 4.204225 2.501896
Fe 0.016063 4.261836 0.012955
Co 0.815300 3.254965 4.982299
Co 3.308910 4.497032 0.014081
Co 1.670496 2.236632 9.966144
Co 4.138735 3.454726 4.991142
Co 2.470792 5.490779 4.992132
O 0.051608 2.777681 1.061778
O 1.714587 3.616479 8.919799
O 0.809367 1.834912 3.978221
O 2.509603 4.050885 3.986455
O 2.463607 2.664644 5.990122
O 0.814459 0.416749 5.937376
O 4.128882 4.863548 5.992463
O 3.258911 3.118781 1.063822
O 1.674405 5.088362 0.996441
O 4.924854 3.957575 8.917153
O 3.309301 5.902619 8.997834
O 4.108965 2.073887 4.025833
