28

Li 2.912947 1.945152 3.646915
Li 2.912947 7.641027 4.220162
Li 5.899495 3.750722 1.024556
Li 5.899495 9.446596 1.597803
Fe 1.538890 4.847462 4.287620
Fe 1.538890 10.543337 3.579457
Fe 4.525438 6.544286 0.957098
Fe 4.525438 0.848412 1.665261
Si 1.492205 6.654365 1.659025
Si 1.492205 0.958490 0.963334
Si 4.478752 4.737384 3.585693
Si 4.478752 10.433258 4.281384
O 0.139914 1.844996 1.300092
O 0.139914 7.540870 1.322267
O 1.625542 0.756560 4.577857
O 1.370031 5.187050 0.912376
O 1.625542 6.452434 3.289220
O 1.370031 10.882925 1.709983
O 2.841282 1.725474 1.513662
O 2.841282 7.421348 1.108697
O 3.126461 9.546752 3.944626
O 3.126461 3.850878 3.922451
O 4.356579 6.204698 4.332342
O 4.356579 0.508824 3.534735
O 4.612090 4.939314 1.955498
O 4.612090 10.635188 0.666861
O 5.827830 3.970400 4.136021
O 5.827830 9.666275 3.731056
