30

Li 2.672265 5.931813 1.962850
Li 5.293435 1.973888 0.113269
Li 7.914597 5.383419 3.249526
V 0.012633 7.334307 4.983117
V 5.334239 6.889023 0.506373
V 2.592554 5.828127 -0.997735
V 5.252622 4.426208 4.706002
V 0.054160 2.526273 1.644181
V 2.634089 1.020096 1.524697
Cr 7.899026 7.895294 2.030627
Cr 2.687843 3.419941 3.181747
Cr 5.293435 1.973888 3.043951
O 6.466846 8.477376 0.766076
O 3.868853 7.488296 -0.685534
O 6.544183 6.045535 -0.859704
O 6.696125 8.775623 3.434530
O 4.000723 7.659836 1.784360
O 6.690845 6.231513 1.698247
O 1.407931 6.731922 0.350049
O 4.042679 5.269696 0.210710
O 6.718008 3.826935 0.036540
O 1.266446 6.543086 3.653192
O 3.896016 5.083719 3.514129
O 6.586138 3.655396 3.428010
O 1.220687 4.043654 1.943601
O 3.890736 2.539609 1.777840
O 1.238782 1.622478 0.296397
O 1.426027 4.310746 4.564209
O 4.120024 2.837859 4.446293
O 1.380276 1.811317 2.854623
