32

Li 5.977763 3.320229 1.182589
Li 5.977763 8.437011 1.302406
Li 3.053800 3.320229 1.182589
Li 3.053800 8.437011 1.302406
Li 2.967242 1.796553 3.667585
Li 2.967242 6.913335 3.787401
Li 0.043279 6.913335 3.787401
Li 0.043279 1.796553 3.667585
Mn 1.505261 4.433159 4.126737
Mn 1.505261 9.549941 3.328249
Mn 4.515782 0.683623 1.641742
Mn 4.515782 5.800404 0.843253
B 1.505261 0.736643 1.009589
B 1.505261 5.853425 1.475406
B 4.515782 4.380139 3.494584
B 4.515782 9.496921 3.960402
O 0.288727 1.414954 1.594418
O 0.288727 6.531736 0.890578
O 1.505261 0.839725 4.519153
O 1.505261 4.407330 1.095381
O 1.505261 9.524112 1.389614
O 1.505261 5.956507 2.935833
O 2.721794 1.414954 1.594418
O 2.721794 6.531736 0.890578
O 3.299248 8.818610 3.375573
O 3.299248 3.701828 4.079413
O 4.515782 0.709452 3.580376
O 4.515782 4.277057 2.034157
O 4.515782 5.826234 3.874610
O 4.515782 9.393839 0.450838
O 5.732315 3.701828 4.079413
O 5.732315 8.818610 3.375573
