58

Li 0.875094 5.830968 2.949865
Li 0.875094 1.195400 5.775131
Li 6.227786 3.871747 4.081022
Li 0.875094 5.830968 7.320320
Li 3.242720 4.429639 9.575578
Li 3.242720 9.065206 6.750313
Li 6.227786 8.507314 5.626212
Li 6.227786 3.871747 8.451477
Li 3.242720 9.065206 11.120768
Li 8.595413 7.105985 7.881470
Li 8.595413 7.105985 12.251925
Li 8.595413 11.741553 9.426659
V 0.000000 4.100850 5.233268
V 4.735253 2.367627 6.233945
V 4.735253 6.468477 3.734577
V 4.735253 6.468477 7.600895
C 2.603698 3.556718 4.179382
C 2.603698 6.839792 5.273741
C 2.603698 3.556718 7.274695
C 6.394666 5.452202 6.074867
C 3.075840 7.484751 9.126923
C 6.866808 6.097161 9.928049
C 6.866808 9.380235 7.927095
C 6.866808 9.380235 11.022407
S 1.183813 1.617119 1.900224
S 8.286693 11.319834 13.301566
O 0.573079 0.782841 0.919891
O 0.573079 2.898494 1.625108
O 0.573079 0.782841 2.914547
O 3.016025 2.004314 2.141364
O 1.269048 3.978505 3.932424
O 2.673912 2.435984 4.856034
O 1.269048 2.950200 6.633222
O 3.861296 4.246324 3.738713
O 1.269048 6.178389 5.635214
O 2.673912 6.880821 4.221085
O 3.861296 3.029676 7.523796
O 2.673912 4.680937 7.678422
O 6.401503 4.299780 5.750335
O 3.861296 7.474513 5.961844
O 6.401503 6.544733 5.351586
O 3.069003 7.420525 8.076411
O 6.401503 5.516428 7.125379
O 3.069003 6.392221 9.850204
O 5.609210 5.462440 9.239946
O 3.069003 8.637173 9.451455
O 6.796594 8.256016 7.523368
O 5.609210 9.907277 7.677993
O 6.796594 6.056132 10.980705
O 8.201458 6.758564 9.566576
O 5.609210 8.690629 11.463076
O 8.201458 9.986753 8.568568
O 6.796594 10.500969 10.345756
O 8.201458 8.958449 11.269365
O 6.454481 10.932639 13.060426
O 8.897427 10.038459 13.576681
O 8.897427 12.154112 12.287242
O 8.897427 12.154112 14.281899
