18

Li 2.143562 4.940411 1.636522
Li 3.256451 -0.007710 0.427415
Cr 0.000000 3.506891 -0.972653
Cr 0.000000 0.000000 0.000000
P 1.944113 0.890536 2.482496
P 3.455901 4.042166 -0.418560
H 0.336621 2.267968 0.966884
H 5.063393 2.664734 1.097052
O 0.270708 4.979241 2.523023
O 1.111652 2.272853 2.531028
O 1.853479 3.909183 -0.074602
O 1.345824 -0.017027 1.424876
O 1.829233 0.140147 3.710512
O 3.570781 4.792554 -1.646576
O 4.054190 4.949728 0.639060
O 3.546535 1.023518 2.138538
O 4.288361 2.659848 -0.467092
O 5.129306 -0.046540 -0.459086
