26

Li 2.090290 7.312254 5.622025
Sn 2.480901 4.158062 -0.881770
Sn 4.902532 0.208770 1.804657
P 0.605952 2.834904 1.676767
P 1.791081 7.031410 1.072486
P 3.128018 1.336436 4.500583
P 4.353348 5.563545 3.840892
H 0.011003 8.140274 0.045414
H 2.190665 3.102607 2.929722
H 2.665952 4.960303 2.737258
O 0.565433 4.493548 5.930939
O 4.899425 6.956506 3.368444
O 0.773266 6.802427 2.357593
O 1.350933 3.563911 2.772513
O 1.835511 0.489881 4.245865
O 2.734146 2.765510 4.979663
O 1.118156 7.743267 -0.001421
O 1.647988 2.714366 0.406525
O 3.245079 5.684388 5.095137
O 3.754364 0.508196 5.502703
O 2.252203 5.640273 0.535617
O 3.002817 7.889872 1.411502
O 3.671395 4.875922 2.716321
O 4.067281 1.570707 3.166117
O 0.152146 1.437749 2.158527
O 4.388611 3.937767 -0.340633
