16

Li 2.985364 1.058494 7.140757
Li 5.970771 -0.432478 6.219543
Li 5.970657 -0.432431 8.631875
Li 2.985352 3.607879 3.140756
Ti 2.985448 1.058503 4.728394
Ti 0.000024 0.000029 4.824775
Ni 2.985376 3.607903 5.553181
Ni 0.000018 0.000001 2.412399
O 3.027739 2.274588 6.254167
O 5.840106 0.892897 5.344676
O 3.115910 2.256568 3.982560
O 0.041825 3.910738 4.947002
O 5.928915 -1.793796 4.509720
O 2.854843 -0.139608 5.474191
O 0.130647 1.224058 4.112064
O 2.943032 -0.157636 3.202602
