24

V 3.910054 2.333676 2.660643
V 4.647775 1.152977 7.281348
V 4.906014 -1.348382 7.357155
Co 1.036342 3.744082 2.534618
Co 0.983382 1.281591 2.350788
Co 2.000143 -0.127448 6.984571
Te 1.863073 2.497526 5.133155
Te 3.823492 -0.193379 0.367888
O 0.967563 3.792339 6.159874
O 0.270676 2.584848 3.733473
O 2.159816 2.560781 1.520815
O 5.790214 2.229051 3.406457
O 5.823394 2.279619 8.112446
O 0.962821 1.273511 6.027023
O 2.890376 3.528153 3.857824
O 2.949094 1.352616 3.781704
O 1.876192 -0.076752 1.164090
O 3.836633 2.364373 6.161298
O 3.143027 1.135238 8.300419
O 3.224513 -1.376680 8.210214
O 4.065724 -0.165291 6.209103
O 4.709675 1.009208 1.523874
O 5.728485 -0.276218 8.322348
O 4.734532 -1.490317 1.399852
