44

Li 0.853422 9.110864 6.509552
Li 3.410481 4.505970 6.579682
Li 3.402136 4.697528 1.303611
Li 4.508918 0.291226 3.228578
Mn 0.771633 6.224118 6.328122
Mn 0.782454 2.838892 1.156331
Mn 1.927282 1.762054 8.824379
Mn 1.769317 7.642553 3.618522
Mn 3.536024 1.475125 6.116813
Mn 3.418698 7.639217 0.942514
Mn 4.525161 6.104671 8.709101
Mn 4.508907 3.269209 3.569027
B 0.837978 3.151908 6.420106
B 0.878484 5.945398 1.164024
B 1.838117 7.666912 8.668336
B 1.776677 1.553947 3.671851
B 3.584960 7.562462 6.060481
B 3.552341 1.636255 0.989745
B 4.423545 2.987064 8.642364
B 4.436917 6.317425 3.372952
O 0.380837 2.760864 9.551140
O 0.285276 6.363465 4.443705
O 1.027177 0.455329 4.024019
O 1.144758 6.510846 8.223787
O 1.148071 2.637711 3.039828
O 1.446688 8.891346 8.324964
O 1.475600 1.973170 6.900911
O 1.532183 4.312034 6.303393
O 1.510402 4.761059 1.048185
O 1.549667 7.104704 1.575958
O 2.230372 7.541888 5.742488
O 2.281145 1.711495 0.441163
O 2.977182 7.404284 9.409270
O 3.121365 1.664926 3.990579
O 3.803641 1.784370 8.301283
O 3.865374 4.181167 8.448061
O 3.852817 5.130359 3.150376
O 3.874507 7.521718 2.871522
O 4.137651 6.362008 6.516746
O 4.088166 0.452238 1.303373
O 4.180282 2.866183 1.249905
O 4.343050 8.684106 5.883404
O 4.832101 3.145519 5.681973
O 4.840835 6.179118 0.482800
