15

Li 5.215083 1.730938 6.095724
Li 0.006047 1.367017 2.454654
Li 5.307999 4.766700 1.012931
Li 0.098963 4.402779 2.570439
Fe 2.595790 1.537924 4.355083
Fe 2.718257 4.595794 4.311081
Fe 2.657023 5.981683 1.643434
O 1.430812 5.953859 3.233544
O 3.883234 6.009507 5.251902
F 1.103770 1.475740 0.746795
F 4.101929 1.634070 2.736280
F 1.325159 3.087243 3.605621
F 3.988888 3.046474 5.060542
F 1.212118 4.499647 0.731305
F 4.210277 4.657978 2.720790
