40

V 0.532801 4.445784 0.908948
V 2.194864 1.758265 2.827553
V 3.249773 4.564446 7.357524
V 4.911835 1.639604 5.438918
V 5.977438 3.972747 0.908948
V 7.639500 1.047905 2.827553
V 8.694410 3.854086 7.357524
V 10.356472 1.166567 5.438918
F 10.563074 5.268084 4.581159
F 0.534936 1.924885 3.988702
F 0.772953 1.420099 6.568267
F 1.069348 2.567381 1.479144
F 1.494705 5.534535 2.269343
F 1.920628 4.214937 6.261887
F 2.234196 3.977506 8.917818
F 2.877610 0.579812 7.906203
F 2.567026 3.385987 3.376241
F 3.210441 1.171331 4.387847
F 3.524008 1.408768 1.731916
F 3.949931 2.728360 6.799314
F 4.375288 5.373550 6.009115
F 4.671683 4.226268 2.038296
F 4.909701 4.731060 8.518673
F 5.770836 2.461914 0.051189
F 5.118438 3.150437 4.581159
F 5.979572 0.881291 3.988702
F 6.217590 1.386083 6.568267
F 6.513985 0.238801 1.479144
F 6.939342 2.883991 2.269343
F 7.365265 4.203583 6.261887
F 7.678833 4.441020 8.917818
F 8.322247 2.226364 7.906212
F 8.011663 5.032539 3.376232
F 8.655078 1.634845 4.387847
F 8.968645 1.397414 1.731916
F 9.394568 0.077816 6.799314
F 9.819925 3.044970 6.009115
F 10.116320 4.192252 2.038296
F 10.354338 3.687466 8.518673
F 0.326199 0.344267 0.051189
