24

Cr 1.043828 3.820566 1.917630
Cr 1.043665 1.255856 1.936922
Cr 2.075107 -0.140195 6.573869
Fe 3.999418 2.338210 1.809634
Fe 5.031491 0.944206 6.415171
Fe 5.031269 -1.624674 6.434983
Te 2.026399 2.471861 4.439160
Te 4.003157 -0.270670 9.055357
O 1.065957 3.774535 5.465351
O 0.277644 2.590055 3.141206
O 1.961295 2.476462 0.957359
O 0.057523 -0.004279 2.716649
O 0.088991 -0.006026 7.316575
O 1.065890 1.299144 5.484308
O 2.870868 3.548557 3.117079
O 2.870892 1.281182 3.134334
O 2.086511 -0.140924 0.887484
O 3.932892 2.342943 5.433835
O 3.082703 0.901445 7.740696
O 3.081872 -1.318167 7.757879
O 3.908885 -0.264358 5.534113
O 4.960848 0.916550 0.825472
O 5.708461 -0.386098 7.733250
O 4.960619 -1.587498 0.844491
