18

Li 0.000000 3.097358 1.118207
Li 3.284064 -1.091538 1.603134
W 0.000000 3.097358 -1.562154
W 0.000000 0.000000 2.680361
W 3.284064 2.005819 0.040980
W 3.284064 -1.091538 -1.077227
O 1.321192 5.175939 0.515458
O 0.526665 1.620878 3.157891
O 1.321192 2.632662 -0.402704
O 1.926557 4.308831 -2.633510
O 3.286416 3.306467 0.939895
O 1.926557 0.605209 1.390127
O 4.641572 3.406430 -1.308166
O 3.281713 0.705172 -0.857934
O 4.641572 -0.297192 2.715471
O 5.246937 1.378977 0.484665
O 6.041464 2.390760 -3.075931
O 5.246937 -1.164301 -0.433498
