30

Li 0.869677 1.783774 8.366454
Li 0.869594 0.790658 2.882451
Li 5.421742 3.480187 8.534356
Li 5.421735 4.243172 3.050516
Li 6.028413 4.418429 5.993210
Li 6.028365 3.304990 0.509006
Fe 3.510924 0.667697 8.174613
Fe 3.354847 3.325010 6.168208
Fe 3.510875 1.906999 2.690874
Fe 3.354379 4.398402 0.684733
C 1.380404 4.141088 9.712958
C 1.380328 3.582127 4.229070
C 5.484189 1.692309 4.575714
C 5.484292 0.882054 -0.908413
O 0.323048 3.591110 9.303811
O 0.322917 4.132097 3.820059
O 1.764727 0.185686 9.257243
O 1.764713 2.388751 3.773620
O 2.035113 4.174650 5.066630
O 2.610919 1.919877 7.323352
O 2.035202 3.548460 -0.417317
O 2.610926 0.654789 1.839475
O 4.431601 4.411522 7.286666
O 4.904517 1.570734 9.172583
O 4.431581 3.311949 1.802587
O 4.904503 1.003827 3.688619
O 5.215284 2.986567 4.685909
O 5.215815 4.736618 -0.798057
O 6.253008 1.106484 5.296232
O 6.252994 1.467973 -0.187500
