14

Li 5.123736 7.069734 10.102651
Li 5.123736 4.338995 8.112345
Mg 5.123736 7.069734 8.890237
Ni 0.000000 2.730738 1.990306
Ni 0.000000 0.000000 0.000000
Ni 5.123736 4.338995 6.899931
O 0.289594 2.928289 4.100517
O 9.957879 11.211179 16.104785
O 0.289594 0.447271 1.070028
O 9.957879 13.692197 19.135274
O 5.123736 7.043224 9.529096
O 5.123736 7.096244 10.676206
O 5.123736 4.533561 8.767119
O 5.123736 9.605907 11.438182
