18

Li 1.605478 4.816433 2.252717
Li 1.605478 1.605478 2.252717
Li 4.816433 1.605478 2.252717
Li 4.816433 4.816433 2.252717
Fe 0.000000 3.210955 0.307198
Fe 3.210955 0.000000 4.198235
P 0.000000 0.000000 0.000000
P 3.210955 3.210955 0.000000
O 0.000000 1.244142 0.923361
O 0.000000 5.177768 0.923361
O 0.000000 3.210955 3.011697
O 1.244142 0.000000 3.582072
O 1.966813 3.210955 0.923361
O 3.210955 0.000000 1.493736
O 3.210955 1.966813 3.582072
O 3.210955 4.455098 3.582072
O 4.455098 3.210955 0.923361
O 5.177768 0.000000 3.582072
