98

Li 10.203979 5.101993 7.071869
Li 0.000000 8.837091 0.000140
Li 1.047403 2.525611 7.947715
Li 2.311662 2.062922 0.875914
Li 1.047393 6.451705 0.875934
Li 3.401289 4.646213 5.372962
Li 3.401554 4.646390 12.444742
Li 2.311713 7.083846 7.947737
Li 6.844976 4.329576 7.947685
Li 3.359054 8.514644 13.267869
Li 6.844986 5.424479 0.875934
Li 3.359024 9.609518 6.196090
Li 7.892338 6.855229 6.196023
Li 6.802833 9.292898 8.770813
Li 6.802833 9.292889 1.699047
Li 9.156678 7.487425 13.267855
Li 7.892389 11.876198 13.267861
Li 9.156586 11.413424 6.196088
Sb 0.000031 3.811258 10.607732
Sb 0.000010 5.025871 3.535997
Sb 4.400774 2.200411 3.535915
Sb 5.803236 2.901641 10.607720
Sb 4.400845 7.226215 10.607824
Sb 5.803236 6.712858 3.535965
P 0.890230 2.392571 4.905625
P 2.248785 1.895312 11.977427
P 0.890240 6.563780 11.977535
P 3.401289 4.646310 1.597345
P 3.401422 4.646509 8.669097
P 2.248734 7.243017 4.905680
P 3.138913 8.459080 2.166325
P 7.065158 4.303532 4.905568
P 3.139035 9.635570 9.238192
P 7.065158 5.480023 11.977450
P 7.955286 6.696096 9.238095
P 6.802823 9.292751 12.546473
P 6.802660 9.292785 5.474622
P 9.313800 7.375387 2.166339
P 7.955409 12.043825 2.166362
P 9.313871 11.546548 9.238192
O 10.204000 7.070014 3.536028
O 0.078479 1.961996 0.968821
O 0.669629 2.420377 11.976500
O 2.272468 9.973235 10.607890
O 2.220203 1.177996 8.040619
O 2.408161 1.783960 4.904740
O 1.273789 3.715365 4.865561
O 2.078969 3.743554 9.204574
O 1.273718 5.292335 11.937434
O 0.078561 6.885657 8.040686
O 0.000010 6.869155 10.607818
O 0.669578 6.506436 4.904806
O 3.122209 3.361519 2.132986
O 3.554778 2.880459 11.937287
O 2.078847 5.372071 2.132817
O 3.401350 4.646129 0.090303
O 3.401544 4.646676 7.162097
O 3.122280 5.893902 9.204803
O 5.375646 3.790866 4.865506
O 5.002914 4.301967 9.204667
O 2.408212 7.375717 11.976599
O 2.272305 8.005328 3.536011
O 2.220070 7.956482 0.968879
O 2.298652 8.063685 6.103159
O 3.554758 6.432889 4.865586
O 5.002801 5.205442 2.132942
O 3.077831 8.290381 9.239064
O 5.375626 5.766308 11.937343
O 7.126311 4.143050 11.976569
O 2.298672 9.918486 13.174993
O 7.905532 4.020666 0.968753
O 7.931797 3.965929 3.535884
O 3.077811 9.796069 2.167220
O 4.828404 8.172722 2.206376
O 7.126260 5.648706 4.904711
O 5.201270 8.733653 12.011016
O 6.649273 7.506256 9.278217
O 7.905419 5.875444 8.040673
O 7.983950 5.982684 13.174896
O 7.931685 5.933814 10.607778
O 7.795859 6.563421 2.167190
O 5.201106 9.637252 4.939079
O 4.828527 10.148253 9.278269
O 7.081719 8.045324 4.939142
O 6.803017 9.292822 14.053486
O 6.802802 9.292945 6.981649
O 8.125214 8.566956 12.010831
O 6.649313 11.058734 2.206544
O 7.081862 10.577549 12.010845
O 9.534432 7.432698 9.239011
O 10.125551 7.053422 6.103160
O 8.930343 8.646807 2.206440
O 8.125041 10.195704 4.938946
O 8.930394 10.223714 9.278228
O 7.795889 12.155088 9.239035
O 7.983990 12.761089 6.103127
O 9.534472 11.518698 2.167246
O 10.125582 11.977137 13.175024
