22

Li 1.456460 3.470401 1.256182
Li 7.395568 0.247847 4.307534
Fe 3.018179 4.832691 4.211069
Fe 5.833849 1.610136 1.352647
C 0.605311 4.789850 3.832080
C 8.246717 1.567296 1.731636
S 3.806390 1.586818 3.958318
S 5.045638 4.809372 1.605398
O 0.594768 1.787918 1.612373
O 1.137574 4.756812 5.035934
O 1.550282 4.626963 2.877520
O 2.960924 0.401853 4.244409
O 3.026128 2.769212 4.406674
O 3.750967 4.732882 0.899365
O 4.117795 1.678841 2.490106
O 4.734233 4.901396 3.073610
O 5.101061 1.510327 4.664351
O 5.825900 5.991766 1.157043
O 5.891104 3.624407 1.319307
O 7.301746 1.404409 2.686196
O 7.714454 1.534258 0.527783
O 8.257260 5.010473 3.951343
