20

Li 4.617759 4.706133 3.218149
La 1.410677 1.437674 7.772641
La 1.414503 1.441574 3.871588
La 4.176869 4.256805 7.633901
Ti 1.440265 4.206478 1.909229
Ti 1.384971 4.195173 5.738830
Ti 4.179426 1.520761 1.908633
Ti 4.169188 1.465280 5.738224
O 0.001309 0.001334 1.537350
O 5.554788 5.661094 6.192033
O 0.012856 2.787026 1.868683
O 0.047156 2.710563 5.915880
O 1.049579 4.487784 3.833296
O 1.694751 3.927702 7.754912
O 2.787298 0.066717 1.868080
O 2.710157 0.099520 5.915301
O 2.738732 2.791145 2.248583
O 2.744725 2.797253 5.461667
O 3.895680 1.769717 7.754434
O 4.468336 1.135731 3.832552
