16

Li 3.333327 2.025408 3.359195
Ti 0.612039 -0.067143 4.750161
Ti 4.394010 -0.483850 0.414288
Co 0.048981 2.449520 0.840832
Co 3.491704 4.420328 6.756837
Co 1.513144 -0.179662 0.054366
O 0.228484 1.006139 6.680813
O 0.452703 3.769337 4.963510
O 1.780076 3.671327 7.471498
O 0.970676 1.116960 1.514322
O 2.394526 0.556816 4.335181
O 2.645622 3.722779 2.468029
O 4.021967 3.135302 5.265350
O 3.212355 0.591679 -0.673960
O 4.427184 0.582526 1.955291
O 4.763667 3.252874 0.112291
