56

Li 1.071472 7.500009 3.216204
Fe 0.021695 4.272914 4.275662
Fe 1.026316 5.385929 1.107708
Fe 1.071472 3.208848 7.506172
Fe 1.116629 1.036138 5.328487
Fe 2.121250 6.439653 6.443003
Fe 2.131536 2.155321 2.164646
Fe 3.179393 7.544579 1.101538
Fe 3.226435 1.082593 7.499710
Fe 3.185565 5.391500 3.260186
Fe 3.232341 3.213518 5.375280
Fe 4.244351 4.326248 0.041562
Fe 4.298859 8.559175 4.265378
Fe 5.352090 7.498819 7.495631
Fe 5.357362 1.087907 1.052362
Fe 5.357362 5.343855 5.369375
Fe 5.362634 3.218198 3.213821
Fe 6.415865 6.448746 2.154363
Fe 6.470373 2.099607 6.386080
Fe 7.482383 5.337358 7.499710
Fe 7.488289 3.212335 1.058266
Fe 7.529159 7.453057 5.322316
Fe 7.535331 1.040525 3.167456
Fe 0.011409 8.550080 8.561182
O 1.064461 5.263162 7.596080
O 0.981297 7.585314 5.389378
O 0.986192 1.101379 3.304624
O 1.078638 1.152099 7.412603
O 1.064306 3.301845 0.991168
O 1.156753 7.409810 1.043029
O 1.161647 5.326858 3.130294
O 1.078484 3.119510 5.451833
O 3.113827 5.457086 1.172713
O 3.129745 3.209415 7.507520
O 3.127671 1.051942 5.330204
O 3.187836 5.375136 5.271223
O 3.244598 7.414124 3.125401
O 3.295343 7.506556 7.589200
O 3.195756 0.983838 1.097439
O 3.308321 3.308104 3.221429
O 5.262755 7.505855 0.978192
O 5.269638 5.274971 3.221584
O 5.364554 3.217057 5.272093
O 5.361494 3.220118 1.155549
O 5.353230 0.985312 7.491900
O 5.350170 5.440546 7.496200
O 5.445086 7.491627 5.438856
O 5.451969 1.163861 3.206213
O 7.406403 7.491236 7.405723
O 7.518967 1.042801 1.156419
O 7.419381 3.124631 3.206057
O 7.470125 7.588405 3.299730
O 7.526888 5.442016 5.338121
O 7.587053 5.381834 1.089520
O 7.584979 3.205117 7.503220
O 7.600897 0.968770 5.254929
