21

Li 2.795343 6.993070 4.043626
Li 4.276002 2.487797 7.382897
Li 1.181079 3.773054 7.371368
Co 0.708698 6.167067 0.568726
Co 4.701714 5.371838 6.222788
C 0.251387 3.673330 1.909670
C 5.261970 3.368993 4.863292
C 2.116028 6.257607 6.769097
C 4.614049 4.648089 8.580810
O 0.852196 4.274271 1.010648
O 4.290959 5.751918 4.181799
O 4.320629 2.674895 3.977452
O 1.215899 1.053747 2.179432
O 4.936664 3.610820 5.930868
O 0.943681 3.709236 3.175632
O 2.945238 6.347265 5.934561
O 3.490451 4.078168 7.675361
O 2.620619 6.873775 7.835968
O 0.172309 2.763970 5.618450
O 0.759528 5.548202 6.594280
O 4.854284 4.416488 9.822170
