38

Li 0.517261 1.439782 18.910160
Li 0.517261 0.000000 6.999046
Li 1.537532 0.000000 21.029316
Li 2.579404 1.439782 -0.736024
Li 2.494159 0.000000 10.994738
Li 3.627726 1.439782 13.257892
Li 4.669598 0.000000 15.314781
Li 3.712971 0.000000 1.527130
Fe 2.103152 1.439782 16.005727
Fe 3.103565 0.000000 18.172048
Fe 4.103978 1.439782 20.338369
Ni 1.023214 0.000000 13.950411
Ni 0.011307 0.000000 0.047681
Ni 1.072747 1.439782 2.094197
Ni 2.078339 0.000000 4.204821
Ni 3.103565 1.439782 6.260934
Ni 4.128791 0.000000 8.317047
Ni 5.134383 1.439782 10.427671
O 0.655576 1.439782 22.522348
O 0.378945 1.439782 15.297973
O 0.603400 0.000000 10.721246
O 1.396382 0.000000 17.424750
O 0.431121 0.000000 3.276846
O 1.566080 1.439782 12.577499
O 1.547820 1.439782 5.562585
O 2.384195 1.439782 19.566414
O 1.751988 0.000000 0.866176
O 2.832707 0.000000 14.628918
O 3.374423 0.000000 21.715178
O 2.454630 0.000000 7.454935
O 2.611153 1.439782 2.823580
O 3.822935 1.439782 16.777683
O 3.595977 1.439782 9.698288
O 3.752500 0.000000 5.066933
O 4.810748 0.000000 18.919370
O 4.455142 0.000000 11.655692
O 4.659310 1.439782 6.959283
O 4.641050 1.439782 -0.055631
