14

Li 0.731679 1.001889 1.177353
Li 2.953156 4.043763 4.751958
Cr 0.041574 2.558354 3.264680
Cr 2.945362 1.531664 3.896908
Cr 2.945362 4.033091 2.384143
Cu 5.193742 7.111803 8.357311
O 1.536235 2.103570 2.471974
O 1.466843 2.008552 4.575690
O 1.466843 4.361399 3.152780
O 4.198152 3.395692 3.747455
O 1.703138 4.673352 5.733543
O 4.420974 3.712409 6.325285
O 4.420974 6.053650 4.909394
O 4.382432 6.000874 7.051822
