84

Li 3.181512 5.210785 7.358455
Li 9.544536 6.577601 7.800994
Fe 2.261762 5.132351 4.857474
Fe 11.090713 10.625221 11.873619
Fe 1.800494 1.265159 3.445508
Fe 7.998359 2.529982 3.728370
Fe 12.633733 4.336297 1.826838
Fe 4.562530 9.156411 11.271401
Fe 4.101262 5.289220 9.859435
Fe 6.455339 8.818906 13.775151
Fe 10.383297 6.896102 10.327856
Fe 8.705775 6.259101 5.274133
P 8.314207 3.494710 6.699254
P 0.553659 7.682429 6.761966
P 7.134846 6.631684 10.873215
P 11.954226 6.523518 4.728774
P 1.932870 2.316573 6.357682
P 9.086067 4.604614 2.462609
P 12.189607 4.441930 8.604955
P 2.590998 3.297699 1.949747
P 4.430154 8.104997 8.359227
P 0.758651 5.128517 10.371600
P 6.899465 8.713273 6.997034
P 5.809365 2.739142 7.954943
P 3.772026 7.123871 12.767162
P 5.604373 5.293053 4.345309
P 10.003005 8.550589 13.139379
P 10.774865 9.660493 8.902735
O 6.406992 1.748149 8.855711
O 0.097380 1.201105 8.860603
O 6.919267 3.796675 7.579583
O 4.343158 5.271169 5.214361
O 9.194595 4.778688 3.857990
O 3.869864 3.741713 10.930883
O 2.483845 3.762362 6.187789
O 6.977565 9.943694 7.990870
O 1.786304 6.636343 6.236478
O 9.766033 10.457632 8.157725
O 3.879179 6.659218 8.529125
O 9.323039 2.697571 7.444264
O 8.010220 2.674680 5.497753
O 3.586277 7.247582 11.403981
O 8.348211 6.809626 10.000513
O 11.078852 10.480523 10.104236
O 12.682079 11.407054 6.746278
O 10.464897 10.024219 13.529069
O 5.863323 7.672072 7.559539
O 1.375749 4.560834 11.579969
O 0.346225 4.631330 4.481909
O 12.453863 6.731614 10.810356
O 6.635209 6.423589 4.791632
O 2.825692 1.336382 7.068892
O 6.504767 8.030559 11.647350
O 4.987275 5.860737 3.136940
O 8.654362 8.127598 4.148962
O 2.493160 6.679857 3.786026
O 8.695938 5.021983 6.576463
O 4.576720 3.785228 8.480432
O 5.491086 1.840751 6.784528
O 2.776747 3.173988 3.312929
O 6.016799 5.790240 10.235000
O 12.584305 5.124644 3.954639
O 8.276843 7.786950 6.703980
O 6.265644 9.220465 5.856306
O 11.253988 7.391546 3.712747
O 4.779967 8.889552 9.578866
O 12.111507 3.211509 7.611119
O 6.322797 3.851655 3.894489
O 0.871938 8.580819 7.932382
O 9.894477 8.376515 11.743999
O 10.812229 5.368253 8.898009
O 1.583057 1.532018 5.138044
O 8.624175 3.130984 2.072920
O 10.740861 6.345577 5.601476
O 4.407858 8.521245 13.313902
O 3.537332 9.085189 7.648018
O 2.019866 5.150401 9.502548
O 0.040227 6.569915 10.822420
O 7.835084 5.763657 11.889242
O 1.955166 1.900325 1.403007
O 0.499701 2.749498 7.157371
O 10.434710 5.027605 11.453027
O 12.169805 9.358527 8.022406
O 10.393134 8.133220 9.025526
