25

Na 0.806977 1.550806 4.024713
Na 2.358634 3.283281 1.305507
Na 6.720643 3.376348 4.003372
Na 6.718521 6.625636 3.983917
Na 8.416818 5.077954 1.343950
Mn 3.166880 5.044825 4.123152
Mn 5.850327 1.694031 1.216176
P 3.814584 1.702753 3.708958
P 5.256603 4.985717 1.597370
C 0.538991 4.900097 3.813401
C 8.486007 1.740451 1.513526
O 0.676090 1.773339 1.450415
O 1.137721 4.917710 4.970105
O 1.257652 4.876233 2.741887
O 2.946844 0.470268 4.063187
O 2.934437 2.932007 4.112228
O 4.090224 1.773934 2.171283
O 3.927704 4.929875 0.864318
O 5.178908 1.694510 4.433920
O 5.031343 5.002578 3.153556
O 6.191927 3.768116 1.245267
O 6.134138 6.224484 1.207123
O 7.745271 1.678535 2.595209
O 7.852360 1.684879 0.355727
O 8.309674 5.002242 3.867854
