16

W 0.000000 3.109223 -1.554611
W 0.000000 0.000000 2.692666
W 3.297829 2.009946 0.038778
W 3.297829 -1.099276 -1.099276
O 1.441593 5.367563 0.482958
O 0.392818 1.598566 3.212584
O 1.441593 2.608121 -0.527062
O 1.834417 4.247826 -2.720388
O 3.319647 3.382391 0.857256
O 1.834417 0.747675 1.383805
O 4.761240 3.272218 -1.306249
O 3.276010 0.637502 -0.779700
O 4.761240 -0.227933 2.797943
O 5.154064 1.411772 0.604618
O 6.202840 2.421327 -3.135028
O 5.154064 -1.347670 -0.405402
