28

Li 1.930507 2.360218 8.432875
Li 5.754035 2.101380 9.433596
Li 0.007727 4.979794 4.691660
Li 3.831255 -0.261273 3.701516
Co 0.970557 3.652254 2.036846
Co 0.967169 1.198888 2.024911
Co 3.803483 2.238372 2.039262
Co 1.958279 -0.132851 6.780223
Co 4.791204 0.902494 6.778535
Co 4.794592 -1.551324 6.766601
Sn 1.916846 2.394944 4.664102
Sn 3.844916 -0.228367 9.405548
O 0.904026 3.748659 5.709673
O 0.181190 2.468395 3.119506
O 1.911695 2.359772 1.060668
O 0.001423 0.008728 2.922807
O -0.001423 0.008918 7.659207
O 0.889783 1.123509 5.730598
O 2.785564 3.432957 3.141815
O 2.769408 1.179251 3.131088
O 1.807574 -0.109257 1.003844
O 3.954188 2.241824 5.735722
O 2.976198 0.925719 7.883038
O 2.992354 -1.330141 7.872315
O 3.850067 -0.264233 5.802115
O 4.857736 0.990014 0.978578
O 5.580572 -0.386846 7.861397
O 4.871979 -1.637049 0.999507
