20

Li 2.513584 0.540589 4.176839
Li 4.282100 2.058234 2.368243
Li 1.113312 3.122899 -0.662897
Li 2.881843 4.640559 -2.471495
V 0.000049 0.000019 3.412996
V 0.000022 -0.000007 -0.000001
P 3.609162 1.823517 -1.091323
P 1.786250 3.357617 2.796669
H 1.831695 0.292631 1.399410
H 3.563711 4.888497 0.305948
O 4.404144 0.014429 2.744468
O 3.940025 0.943562 0.104291
O 1.796113 1.753595 2.846856
O 2.046973 1.260783 -1.114701
O 4.648411 1.614026 -2.297301
O 0.746995 3.567107 4.002657
O 3.348433 3.920345 2.820052
O 3.599288 3.427539 -1.141498
O 1.455387 4.237582 1.601063
O 0.991273 5.166703 -1.039111
