14

Li 0.000000 0.000000 2.424096
Li 0.000000 2.486153 3.261095
Mn 2.872511 1.433636 1.421020
Ni 2.872511 3.919788 2.258019
Ni 0.000000 0.000000 0.000000
Ni 0.000000 2.486153 0.837000
O 4.334211 5.854244 7.198274
O 4.334211 3.242501 6.318993
O 1.212579 4.318347 5.706176
O 1.285477 1.832851 4.901371
O 4.459544 6.006726 4.462859
O 4.532443 3.521230 3.658054
O 1.410811 4.597076 3.045237
O 1.410811 1.985333 2.165955
