20

Li 0.265796 6.141041 3.666062
Li 1.391490 1.901187 3.265934
Li 1.808621 1.514261 0.904324
Li 2.909493 3.687486 3.418484
Li 3.112778 6.541713 3.542253
Li 3.495216 3.143844 1.057265
Li 4.619742 5.345478 1.457246
Li 5.036718 4.958271 3.818855
Li 6.135763 0.693257 1.304709
Li 6.339816 3.545135 1.180934
Co 1.656660 4.987916 1.180664
Co 4.883181 1.990736 3.542596
O 6.453631 1.981434 4.601714
O 1.535369 6.544181 2.240012
O 1.716782 3.251229 1.938386
O 3.140583 1.929729 4.300049
O 3.225121 4.975932 0.121254
O 4.943394 6.696681 2.784813
O 4.764454 3.549085 2.483411
O 6.367311 5.375338 0.423245
