26

K 0.000550 0.000074 2.072104
Li 5.302326 -0.689798 5.835008
W 0.029216 3.307741 3.869593
W 0.039055 3.236498 0.020275
W 3.728430 1.380981 3.882518
W 3.817375 1.413462 0.004499
W 3.708353 4.679311 0.017539
W 3.784685 4.634250 3.867080
O 0.057378 3.273056 5.827642
O 1.580488 4.363017 0.078899
O 1.606148 4.376413 3.806938
O 1.590094 1.993579 3.819211
O 3.732258 4.643810 5.826212
O 1.620402 1.977400 0.068538
O 4.326140 3.015782 0.066307
O 4.336838 2.988534 3.817154
O 3.745909 1.433445 5.826868
O 3.810911 1.344939 1.944590
O 3.224818 -0.192427 7.721094
O 3.215649 -0.213224 3.932960
O 5.916814 0.813264 3.934496
O 3.814934 -1.824661 1.943388
O 5.942595 0.801613 7.722533
O 5.899682 -1.521029 7.684202
O 5.919941 -1.515464 3.972547
O 7.458104 -0.466405 1.947356
