36

Li 0.049175 3.428478 1.505960
Li 3.598858 0.271075 1.505960
Li 1.824017 5.385853 7.246614
Li 5.472050 5.549330 2.544275
Ti 7.272326 0.393075 0.845300
Ti 3.671775 3.633432 0.845300
Te 0.001226 3.544328 5.144966
Te 1.824017 1.849777 7.823343
Te 3.646808 7.227378 5.144966
Te 1.824017 5.385853 3.486108
Te 5.472050 2.013253 3.511014
Te 5.472050 5.549330 7.810485
O 2.222039 0.436308 6.441968
O 1.917180 0.399676 0.610975
O 2.276439 0.225315 3.666776
O 1.371595 3.474238 3.666776
O 1.730853 3.299877 0.610975
O 1.425994 3.263245 6.441968
O 0.023209 5.703317 7.949154
O 0.439092 5.440135 4.985344
O 3.679830 2.265267 7.971070
O 0.430351 5.701123 2.203975
O 4.070782 2.045311 4.943123
O 4.137052 2.301386 2.182681
O 3.217682 5.070583 2.203975
O 3.208942 5.331571 4.985344
O 6.807048 1.725121 2.182681
O 3.624825 5.068389 7.949154
O 6.873318 1.981196 4.943123
O 7.264271 1.761239 7.971070
O 5.874239 4.183905 6.425940
O 5.580324 4.207311 0.724771
O 5.889042 3.950304 3.676294
O 5.055058 7.148356 3.676294
O 5.363777 6.891348 0.724771
O 5.069862 6.914754 6.425940
