40

Li 7.632638 1.356503 -3.141944
Li 3.839103 3.418593 -1.323514
Li 2.703157 -0.103592 3.710803
Li 3.271130 4.168500 2.243479
V 7.632638 3.702178 -2.161231
V 5.270908 -1.148173 5.102770
V 1.271353 4.463174 -2.715480
V 3.271130 1.822825 1.262766
C 4.968620 1.190436 -1.147891
C 6.057558 0.965428 2.585947
C 0.484703 2.902713 0.032615
C 5.207238 4.742502 -3.756389
C 5.329640 4.580893 -0.078824
C 1.212621 1.941627 3.807159
C 1.573641 6.885641 -1.790162
C 1.335022 5.987953 1.928110
O 7.627674 -0.491682 -2.412659
O 4.620171 0.025673 -1.125101
O 6.136789 1.964571 -1.977780
O 5.884886 -2.307065 3.994800
O 2.472887 -0.005382 2.082335
O 4.069373 1.689603 -0.376865
O 5.061267 5.290462 -4.833992
O 3.839601 4.203377 -2.970286
O 6.637446 4.667907 -3.526933
O 8.627829 2.702869 -0.809567
O 1.011215 2.181299 0.863882
O 5.531045 1.497931 1.675682
O 5.057804 0.304998 3.583317
O 1.484456 3.591496 -0.952916
O 7.637601 1.144128 2.583183
O 5.864474 4.229971 -1.047389
O 0.677787 0.715811 4.116499
O 1.922090 6.262913 -2.560284
O 4.130435 3.819383 0.734254
O 2.411826 2.367070 2.853572
O 0.405472 6.447573 -0.819765
O 0.657375 2.648482 4.465171
O 1.480993 5.107097 2.866538
O 2.702660 6.498726 1.130168
