12

Mn 1.083942 2.810326 2.064523
Mn 4.136589 8.936225 5.995198
P 0.823257 5.793368 1.428047
P 3.113063 3.014247 4.643679
O 0.197049 6.569359 1.944049
O 1.132079 4.585725 2.345540
O 1.521561 2.286515 5.117277
O 2.692043 2.703948 3.384317
O 2.446385 7.079440 5.331886
O 4.014499 4.747231 4.757917
O 4.814679 8.247242 3.283907
O 4.216080 10.731265 6.267970
