34

Li 0.127249 5.171647 9.764078
Li 2.150744 2.755694 7.638203
Li 3.785370 2.849951 5.509762
Li 1.303123 1.649722 5.467934
Li 1.189879 3.760388 5.542895
Li 4.938501 4.520701 0.585402
Li 4.116032 5.627268 2.734837
Li 2.499774 5.430880 0.543831
Li 4.902075 6.707003 0.598627
Li 0.094320 0.098066 4.787416
V 4.017815 3.023389 2.853893
V 1.138237 4.003481 2.863769
V 5.141061 6.878798 7.800690
Cr 1.075442 1.459616 2.824951
Cr 2.107800 2.816721 0.279075
Cr 5.141775 4.330650 7.760775
Cr 4.132947 5.554228 5.231977
Cr 2.154563 5.343417 7.769424
O 1.113158 1.373162 8.926359
O 2.987605 1.668208 1.599032
O 4.157361 2.993488 9.001858
O 2.043824 2.762492 4.028693
O 0.191878 2.630041 1.591766
O 3.004387 4.095151 1.545307
O 5.149292 4.405623 4.013228
O 1.181503 4.012753 8.966654
O 3.208073 4.236828 6.537639
O 2.103291 5.441752 4.056008
O 6.002438 5.624848 6.529613
O 4.103825 5.469960 8.916973
O 3.131709 6.613191 6.559817
O 5.123528 6.975776 4.131321
O 0.142936 5.214455 6.691781
O 0.058402 0.105747 1.751450
