48

Li 4.516254 1.301872 2.545564
Li 6.953539 3.951183 2.904249
Li 1.218643 3.996752 7.995376
Li 10.251151 1.347440 8.354061
Mo 7.417733 1.397798 6.481996
Mo 4.052060 4.047110 9.867441
Mo 9.786957 3.900825 1.032184
Mo 1.682837 1.251514 4.417629
P 7.669105 1.271712 1.522351
P 10.976925 3.925475 4.458720
P 3.800688 3.921024 3.927462
P 5.242028 4.022461 6.440904
P 9.535585 4.026911 6.972163
P 6.227765 1.373149 9.908532
P 0.492868 1.276163 0.991092
P 1.934209 1.377600 9.377274
O 4.812404 3.935955 7.885399
O 2.424806 1.357285 5.951805
O 3.888673 3.977168 5.555648
O 3.210556 2.526755 3.585649
O 8.159703 1.292027 4.947819
O 6.657389 1.286644 8.464038
O 2.524341 2.771869 9.035462
O 2.825974 5.062061 3.568581
O 6.338185 1.501248 2.157014
O 5.131608 4.150560 3.292798
O 8.945452 0.122557 7.313975
O 5.934104 0.038293 6.078056
O 10.866505 3.797375 7.606826
O 10.547301 4.011980 3.014226
O 1.846224 1.321455 0.105835
O 9.044987 4.006597 10.397631
O 8.643820 2.412749 1.881232
O 0.318149 5.135908 4.937846
O 11.270586 5.260330 0.628243
O 0.603288 1.148063 8.742610
O 7.581120 1.327856 10.793789
O 0.199207 2.611019 4.821569
O 5.535689 2.687605 10.271381
O 6.053046 2.812027 5.961778
O 0.922493 1.362668 2.435586
O 8.560870 2.885874 7.331044
O 9.623570 3.970767 5.343977
O 11.151644 2.486596 0.511966
O 2.908923 0.236562 9.018393
O 5.416748 0.162715 10.387658
O 3.310091 3.941339 0.501993
O 8.259238 5.176066 1.864163
