33

Co 8.517006 4.268567 2.346115
Co 0.000810 7.358258 5.974094
Co 2.841768 3.871800 6.825057
Co 2.850321 3.868001 2.160107
Co 5.678530 7.756267 1.495151
Co 5.677737 7.763945 6.160102
C 8.522464 6.758860 2.220417
C 2.876493 6.324090 2.252155
C 5.659103 10.184959 2.267701
C 2.885447 6.313013 6.099792
C 0.003658 2.483904 6.068054
C 5.644623 2.834822 6.052507
O 8.518780 4.259389 4.124227
O 0.579007 1.542049 6.445778
O 1.395616 2.627245 2.692279
O 0.824805 3.470560 6.133292
O 2.830639 3.863170 0.360327
O 2.247462 5.342284 2.709516
O 4.159883 2.776769 6.146465
O 1.470269 6.327377 6.501973
O 2.028740 7.129742 1.874431
O 3.578923 5.376319 6.165455
O 4.908465 3.651600 2.675903
O 6.479866 3.756770 6.441393
O 3.628803 7.252882 5.627929
O 4.364406 6.491963 2.186916
O 5.663862 7.751998 7.959882
O 7.130131 6.714430 5.610692
O 4.966412 9.154296 2.173744
O 7.942903 5.747126 1.818236
O 7.730457 7.646289 2.154754
O 6.294334 9.317717 5.644305
O 7.078068 10.390114 1.878816
