13

Mn 2.369127 3.230089 3.795303
Mn 2.428673 3.311275 6.532349
Mn 2.428673 6.110317 4.816062
Mn 5.647697 4.901079 5.480499
Mn 6.253808 8.526498 10.018499
O 0.832808 3.702305 2.182747
O 0.832808 1.135457 3.756660
O 3.784797 2.593379 2.792066
F 0.791060 1.078538 1.267265
F 1.179982 3.967865 4.896641
F 3.893015 5.307772 4.010129
F 3.893015 2.948704 5.456637
F 3.936677 5.367302 6.306494
