24

Cr 4.066943 2.389277 2.105377
Cr 5.127072 0.950100 6.838073
Cr 5.138620 -1.666550 6.715102
Sn 1.016771 3.923347 2.061244
Sn 1.020809 1.280154 2.021267
Sn 2.079772 -0.149966 6.611259
Sb 2.135390 2.520827 4.694491
Sb 4.185939 -0.298905 9.322645
O 1.044147 3.876854 5.678008
O 0.277920 2.649660 3.343811
O 2.086457 2.530574 1.018611
O 6.128630 2.246465 3.070958
O 6.094154 2.208299 7.605045
O 1.053542 1.304823 5.638517
O 2.992698 3.607437 3.338770
O 2.989039 1.323260 3.301956
O 2.134063 -0.148033 0.943603
O 4.071371 2.377451 5.791177
O 3.323781 0.933235 7.961937
O 3.281825 -1.363635 7.926850
O 4.240063 -0.234865 5.757206
O 5.114705 0.936805 1.083555
O 5.901001 -0.373630 7.941715
O 5.120070 -1.656767 1.037176
