28

Li 1.985746 2.460745 8.763390
Li 0.006687 -0.000284 9.649297
Li 0.023150 -0.001360 4.780097
Li 3.988344 -0.263608 3.874879
V 3.961327 2.330795 2.053817
V 4.959842 0.953722 6.909854
V 4.959830 -1.608376 6.912533
Cr 0.999982 3.793774 2.066762
Cr 0.999605 1.257777 2.070820
Cr 2.029944 -0.132947 6.939115
W 1.993139 2.461167 4.716339
W 3.981831 -0.262789 9.578193
O 1.025826 3.804003 5.774557
O 0.230457 2.577131 3.303727
O 2.001269 2.459391 1.042672
O -0.000635 0.000218 2.974783
O -0.000659 5.183197 7.846948
O 1.022324 1.241904 5.780472
O 2.855922 3.546155 3.341298
O 2.854617 1.261937 3.347589
O 2.046294 -0.135175 0.916463
O 3.996366 2.326202 5.745936
O 3.085912 0.941050 8.180977
O 3.089397 -1.349731 8.183844
O 3.998096 -0.263151 5.888692
O 5.011374 0.956669 0.910497
O 5.719914 -0.376588 8.233462
O 5.012302 -1.618241 0.914544
