68

Li 1.309258 2.882779 14.384854
Nb 1.212777 8.026443 5.424789
Nb 1.165466 0.742807 17.524873
Nb 2.192941 7.950155 13.641743
Nb 3.036514 2.642890 4.734281
Nb 3.967042 0.712442 9.916825
Nb 3.927913 4.686367 9.903379
Nb 4.028251 6.081237 0.762953
V 1.247892 7.985589 17.011022
V 1.158332 0.381918 11.977349
V 1.125401 4.960759 11.949864
V 1.466105 5.571251 2.913218
V 1.514836 10.360456 2.991939
V 1.509023 2.675973 8.092740
V 3.705848 8.013741 10.348146
V 3.762919 4.995228 15.346345
V 3.724430 0.275200 15.453529
V 3.952858 5.693818 6.509919
V 3.977596 10.330261 6.568387
V 3.948304 2.657779 1.407766
O 0.212098 2.415962 17.858316
O 0.187225 6.665639 6.401442
O 0.210055 9.324992 6.516237
O 0.705827 6.698627 3.922150
O 0.584402 9.223676 3.983337
O 0.469090 1.353671 8.384382
O 0.465155 3.979089 8.378635
O 0.618456 0.096648 1.421244
O 0.299240 5.338904 1.542170
O 0.983829 7.937924 15.280469
O 0.981859 6.558056 12.667599
O 0.983767 9.445591 12.707276
O 1.940701 1.254201 3.909430
O 1.924542 4.085620 3.794532
O 2.004114 2.683049 6.428190
O 2.270299 5.125983 10.612248
O 2.323257 0.271061 10.664202
O 1.985980 9.484245 17.472252
O 2.380255 6.772156 17.570988
O 1.908492 1.356934 13.099973
O 2.047127 4.007521 12.940191
O 2.279902 1.149325 16.035290
O 2.489379 4.011688 15.640643
O 2.435969 8.002457 9.256263
O 3.019866 2.685524 9.307159
O 2.856484 6.376219 2.368346
O 2.863991 9.589102 2.669924
O 2.779766 6.722146 5.669934
O 2.782022 9.291122 5.740439
O 2.813690 1.462731 0.872323
O 3.221535 4.149755 0.976567
O 3.276510 0.210963 7.967028
O 3.280046 5.177030 7.962671
O 3.198113 8.021552 12.017321
O 3.224592 6.566401 14.484735
O 3.236300 9.416785 14.609401
O 4.214655 1.167422 5.634405
O 4.180736 4.239737 5.591714
O 4.193869 2.619390 3.186899
O 4.595402 5.414737 17.019147
O 4.862532 0.063495 16.928012
O 4.620758 6.488315 10.083181
O 4.625193 9.542384 10.076360
O 4.572630 1.214122 14.491165
O 4.888034 4.185760 14.500853
O 4.913978 1.203098 11.564203
O 4.889979 4.171371 11.540449
O 4.985445 7.769922 0.567016
