24

Li 0.000000 0.000000 0.000000
Li 5.192340 2.350883 -0.273967
Fe 0.000000 2.350883 2.789171
Fe 2.562586 4.662093 3.935389
Fe 2.629754 2.311210 1.368987
Fe 5.192340 0.000000 2.515204
Fe 7.754926 2.390557 3.661422
Fe 7.822094 0.039674 1.095020
O 1.752861 3.265029 2.792598
O 3.439479 0.914146 2.511778
O 6.945201 3.787621 2.518631
O 8.631819 1.436737 2.237811
F 0.809943 0.934241 4.021851
F 0.784563 1.419473 1.227241
F 1.903356 3.729243 0.002381
F 3.288984 1.378360 5.301995
F 4.407777 3.770356 4.077134
F 4.382397 3.285124 1.282524
F 6.002283 1.416642 3.747884
F 5.976903 0.931410 0.953275
F 7.095696 3.323406 -0.271586
F 8.481324 0.972523 5.028028
F 9.600117 3.282294 3.803167
F 9.574737 3.767525 1.008558
