24

Li 0.001999 2.967327 7.841460
Li 0.002111 2.014369 5.210754
Li 0.004780 5.822056 8.528390
Li 5.104735 3.934618 5.717339
Li 5.111657 1.070269 5.036997
Li 5.109996 4.881660 8.348955
Al 2.553014 4.377677 9.374460
Al 2.563500 2.520311 4.194344
Al 2.560412 3.448043 6.787311
V 2.561332 1.484025 1.569552
V 2.550883 5.423065 4.859265
V 2.552217 0.496574 6.048898
O 1.399454 5.571067 3.110156
O 1.457514 2.761837 2.515434
O 1.411990 0.885209 4.357499
O 1.452862 3.675285 5.108324
O 1.427909 1.788937 6.969269
O 1.443358 4.576838 7.695590
O 3.660830 4.115583 3.902419
O 3.701733 1.294121 3.333110
O 3.667987 2.320260 5.863285
O 3.692362 5.110246 6.602696
O 3.669807 3.240649 8.446386
O 3.684628 0.145585 7.802665
