14

Li 0.978369 0.700985 2.118681
Li 1.229120 3.589428 1.943931
Li 3.690007 2.185365 0.862321
Li 3.861066 3.500408 3.257727
V 1.512775 4.970046 -0.366508
V 3.688269 0.642198 3.090040
O 0.137792 5.148390 0.851930
O 2.435750 5.067311 2.730466
O 2.678279 1.966984 2.559327
O 2.453407 3.654454 0.162727
O 2.655476 0.542326 0.006190
O 4.933424 0.520183 1.863317
F 0.129419 3.717031 3.553596
F 4.893041 1.970677 -0.691354
