24

Mn 8.576509 9.263633 0.000030
Mn 2.889918 6.369746 2.347602
Mn 0.000026 2.502808 2.347615
Mn 5.745092 5.324557 0.000002
Mn 2.831357 1.415586 -0.000046
Mn 5.686651 2.843178 2.347547
F 2.061233 7.521273 1.235065
F 1.081891 6.183480 3.460095
F 3.675369 7.763262 3.621401
F 1.734319 5.111762 1.073754
F 4.753829 9.092104 1.217515
F 0.822536 3.721903 3.477650
F 4.645619 6.439672 1.217614
F 3.822765 5.315643 3.477553
F 7.495055 10.326701 1.235024
F 0.979496 1.426357 3.460143
F 6.842121 9.167833 3.621464
F 1.940672 2.472378 1.073704
F 6.635554 6.500616 3.621361
F 4.901192 4.131453 1.073809
F 3.931113 2.678200 3.477193
F 7.753561 7.899709 1.217987
F 7.596996 5.583233 1.235002
F 6.515517 4.105916 3.460173
