18

V 6.220710 5.015384 5.993889
V 4.927432 2.844950 3.359672
V 2.393230 4.125832 4.691079
V 1.199527 1.980545 2.485304
V 3.704526 6.096174 2.148115
V 7.351603 1.817668 6.870102
O 4.921725 1.210358 4.544923
O 7.085698 2.840443 3.150673
O 0.226394 4.210434 5.082653
O 2.732188 2.927412 3.405927
O 7.286224 3.357401 5.728918
O 4.974042 4.465205 2.135831
O 2.474993 5.761445 3.666558
F 2.470965 2.525921 6.017808
F 4.669022 4.120264 4.791185
F 2.215648 5.283014 6.308521
F 5.143546 1.666201 1.853982
F 7.317739 5.436032 4.206827
