80

Li 0.648718 8.717094 0.805314
Li 0.526519 4.281202 4.655178
Li 1.589760 2.136698 7.101494
Li 2.831350 3.858906 2.512127
Li 3.772392 9.835665 5.394681
Li 3.894591 1.714402 0.065812
Li 4.947629 10.276807 9.112921
Li 5.069829 2.155544 3.784052
Li 6.010871 8.132303 6.666605
Li 7.252460 9.854510 2.077239
Li 8.315702 7.710006 4.523555
Li 8.193502 3.274114 8.373418
Cr 0.401737 6.153952 2.292554
Cr 1.025786 10.644191 3.454774
Cr 1.021188 1.791064 1.032929
Cr 3.395324 7.908568 8.044140
Cr 3.399922 4.204541 5.622295
Cr 4.019373 -0.158347 6.881920
Cr 4.822848 12.149556 2.296813
Cr 5.442298 7.786668 3.556438
Cr 5.446896 4.082641 1.134592
Cr 7.821032 10.200145 8.145804
Cr 7.816434 1.347017 5.723959
Cr 8.440483 5.837257 6.886179
Cu 2.181500 11.101589 0.247697
Cu 2.239611 7.451171 4.837064
Cu 2.245659 4.705174 8.850960
Cu 2.175451 1.290430 4.261594
Cu 6.666769 10.700779 4.917139
Cu 6.596562 7.286034 0.327773
Cu 6.602610 4.540038 4.341669
Cu 6.660721 0.889620 8.931035
O 0.433233 5.554956 8.065976
O 0.505536 11.351809 8.131770
O 0.522531 7.545477 6.104564
O 0.559368 2.407029 5.324463
O 0.899837 7.328838 3.398104
O 1.115879 10.422630 1.764896
O 1.180764 12.234003 3.826843
O 1.068892 3.048774 9.048266
O 1.508500 2.363357 2.542096
O 1.746577 5.361912 1.642378
O 2.144451 9.720752 4.293985
O 2.276660 8.832008 8.883352
O 2.170146 0.656030 0.510025
O 2.250964 5.339574 5.099392
O 2.674533 0.633692 6.231744
O 2.912610 3.632247 7.131462
O 3.240347 6.318756 8.416209
O 3.352218 2.946831 4.458900
O 3.305231 8.130129 6.354262
O 3.521273 11.223921 7.987471
O 3.898579 11.007283 1.515198
O 3.915574 7.200950 3.542403
O 3.861742 3.588575 0.735097
O 3.987877 0.440648 3.476610
O 4.854344 11.550560 5.702122
O 4.980478 8.402633 8.443635
O 4.926646 4.790259 5.636329
O 4.943641 0.983926 7.663535
O 5.320948 0.767288 1.191262
O 5.536990 3.861080 2.824470
O 5.490002 9.044378 4.719833
O 5.601874 5.672453 0.762523
O 5.929611 8.358962 2.047270
O 6.167687 11.357516 2.946988
O 6.591256 6.651635 4.079341
O 6.672074 11.335178 8.668707
O 6.565561 3.159201 0.295381
O 6.697770 2.270457 4.884747
O 7.095643 6.629297 7.536354
O 7.333720 9.627851 6.636637
O 7.773329 8.942435 0.130467
O 7.661457 -0.242795 5.351889
O 7.726341 1.568578 7.413837
O 7.942383 4.662370 5.780628
O 8.282853 9.584180 3.854269
O 8.319689 4.445732 3.074169
O 8.336684 0.639399 1.046963
O 8.408987 6.436253 1.112756
