20

Sr 6.869240 8.614533 -7.741887
Sr 9.287426 11.647116 -10.467271
Sr 11.705611 14.679699 -13.192655
Nb 1.087149 1.363365 -1.225257
Nb 3.495954 4.384184 -3.940069
Nb 15.078897 18.910049 -16.994473
Nb 17.487702 21.930868 -19.709285
O 0.000000 0.000000 0.000000
O 2.038831 2.556845 -2.297838
O 10.270462 10.091867 -8.770782
O 4.369604 5.479805 -4.924704
O 12.476728 12.858686 -11.257324
O 17.591814 19.273382 -17.022215
O 15.385549 16.506563 -14.535673
O 14.205248 17.814428 -16.009838
O 16.536020 20.737388 -18.636704
O 3.189302 6.787670 -3.578103
O 6.098124 10.435547 -6.856453
O 8.304389 13.202366 -9.342995
O 0.983037 4.020851 -1.091561
