50

K 12.896194 12.936018 1.935460
K 2.144268 8.765187 1.976758
K 4.341681 2.282521 1.964639
K 6.561653 6.453352 1.923342
K 8.833214 10.746588 1.999371
K 10.624633 4.263922 1.987252
Li 8.256924 1.772594 2.027151
Li 11.200922 8.255261 2.039270
Nb 12.902628 6.553704 4.043421
Nb 0.936947 2.649673 3.985565
Nb 1.601835 4.851835 2.587804
Nb 2.608921 12.020497 4.021183
Nb 3.877028 5.537831 4.009064
Nb 4.884114 11.334501 2.599923
Nb 5.549002 9.132340 3.997684
Nb 6.555219 0.071037 4.031303
Nb 7.484201 3.830802 3.992082
Nb 9.167629 7.478715 3.999793
Nb 10.290217 0.996049 3.987675
Nb 11.973645 10.313469 4.004201
O 0.080244 6.407221 1.933718
O 12.929039 4.461073 3.949682
O 0.834171 11.122440 3.998334
O 1.061257 2.827947 1.874780
O 1.799591 0.831895 3.919663
O 2.011656 6.468768 3.966326
O 2.796054 3.680689 3.926754
O 2.834476 11.859986 1.911461
O 3.651472 5.377320 1.899342
O 3.689895 10.163356 3.938873
O 4.474293 12.951434 3.978444
O 4.686357 7.314561 3.931781
O 5.424692 9.310613 1.886899
O 5.651778 4.639774 3.986215
O 6.528808 10.943739 3.961800
O 6.405705 12.889888 1.945836
O 6.529937 1.998230 3.957474
O 7.376924 8.290760 3.974936
O 7.546168 3.707320 1.943561
O 8.351645 5.591728 4.004696
O 8.490950 0.035149 3.954172
O 9.206117 2.699706 3.986865
O 9.266579 7.512814 1.948557
O 10.191268 1.030148 1.936438
O 10.251730 9.182373 3.998983
O 10.966896 6.517815 3.966291
O 11.106202 12.074394 4.016815
O 11.911679 10.189987 1.955679
O 12.080923 1.808093 3.962818
O 12.927910 8.480897 3.969592
