14

Li 4.417409 3.000809 0.869192
Li 1.472470 5.108133 2.445794
Mn 2.944939 4.054471 -0.734543
Mn 0.000000 2.503313 3.182576
Co 2.944939 1.551158 -1.525083
Co 0.000000 2.503313 0.790540
O 3.110769 5.286958 3.365743
O 5.724049 6.663424 -0.649017
O 5.730416 4.408024 -1.335087
O 3.104402 5.257059 0.729762
O 2.785477 2.851884 2.585224
O 0.159463 3.700919 4.650072
O 0.165830 1.445518 3.964003
O 2.779110 2.821985 -0.050757
