16

Li 0.000000 2.959770 0.625680
Li 2.959908 2.988363 -0.875843
Li 2.959908 0.028593 -1.501524
Li 2.959908 2.988363 -2.988611
Fe 0.000000 2.959770 -1.487088
Fe 2.959908 0.028593 0.611244
Cu 0.000000 0.000000 2.112768
Cu 0.000000 0.000000 0.000000
O 1.448561 4.487123 -2.930499
O 1.449076 1.377611 0.650019
O 1.446477 4.485019 -0.919203
O 4.556138 4.514543 -4.514891
O 1.363677 1.462182 2.763204
O 4.473338 1.491706 -0.832483
O 4.470739 4.599114 -2.401706
O 4.471254 1.489603 1.178812
