56

Li 0.013111 0.026772 0.035760
Li 2.066050 2.056068 2.050831
Li 2.110533 6.264580 6.189378
Li 4.144056 8.308341 4.128695
Li 4.194208 4.150640 8.275183
Li 6.245717 2.127909 6.236860
Li 6.305761 6.234510 2.065979
Li 8.341007 4.228392 4.113387
V 1.088787 0.982586 5.170451
V 1.050776 3.075921 7.306416
V 1.012305 5.187798 1.040597
V 3.143507 3.095723 5.186472
V 3.149009 5.252410 3.176513
V 3.071055 7.314381 1.021888
V 5.292335 3.162057 3.123623
V 5.248488 1.088537 1.006346
V 5.174481 7.287209 7.151118
V 7.336152 1.054097 3.100277
V 7.348661 7.292126 5.120220
V 7.270849 5.193371 7.232422
Co 1.060944 7.287498 3.085634
Co 3.121684 1.046713 7.272161
Co 5.217425 5.220577 5.169062
Co 7.296569 3.149676 0.998903
O 0.960757 0.940108 3.212827
O 1.029898 7.403591 5.050392
O 0.967956 5.013296 7.305995
O 1.150737 1.174313 7.187966
O 0.869533 3.147215 0.920982
O 1.130720 2.966368 5.257518
O 1.187536 5.336245 3.022868
O 1.165278 7.234927 1.146311
O 3.027701 1.071592 5.354385
O 3.032166 2.998401 7.169453
O 3.095521 5.368639 1.150970
O 3.252265 5.184531 5.024312
O 3.007383 7.216535 2.976989
O 3.309967 3.239240 3.143907
O 3.246805 0.919071 0.922776
O 3.229045 7.399307 7.349170
O 5.142807 3.297873 5.063604
O 5.137088 5.129502 3.214690
O 5.153226 7.432045 0.847306
O 5.315246 2.990263 1.089450
O 5.059393 0.955027 7.342491
O 5.302704 1.153315 3.000587
O 5.263396 7.186614 5.311350
O 5.315538 5.294506 7.129979
O 7.154115 3.123421 2.949906
O 7.197611 1.198083 1.106714
O 7.222068 7.114659 7.191207
O 7.493205 7.331378 3.178283
O 7.142467 5.287267 5.286337
O 7.440938 0.988649 5.123903
O 7.408336 3.269779 7.375398
O 7.405987 5.088733 0.901104
