36

Ti 4.793135 3.544189 3.838434
Ni 0.022165 7.437513 9.458233
Ni 0.674447 5.105149 6.400010
Ni 4.277935 5.907062 6.916301
Ni 3.638097 8.242207 9.976322
Ni 7.882963 6.709327 7.432824
P 2.114859 2.951716 5.544783
P 2.114859 8.166654 5.165178
P 2.114859 5.158717 9.109197
P 6.393542 6.655290 4.714954
P 6.393542 3.631545 8.654083
P 6.393542 8.846780 8.289234
O 0.530475 1.028868 2.828776
O 0.530475 4.042081 2.220377
O 0.530475 2.715797 4.633933
O 1.885808 1.637043 6.407588
O 3.621835 3.169156 4.997230
O 2.462493 4.250111 6.142992
O 1.885808 7.994146 3.898432
O 2.462493 6.865339 5.917829
O 4.833825 7.014343 4.015385
O 2.462493 5.393718 7.907753
O 6.561984 5.256647 4.433944
O 4.833825 2.536175 8.225635
O 3.621835 1.954456 3.127752
O 1.885808 6.492979 9.414684
O 6.137682 6.397609 5.955037
O 3.621835 4.726980 2.886864
O 6.137682 4.995178 7.929429
O 6.561984 3.843274 9.927685
O 6.137682 7.570018 7.663836
O 4.833825 8.541806 8.746840
O 6.561984 10.146164 7.369062
O 7.976259 9.142924 9.183725
O 7.976259 7.733520 11.569774
O 7.976259 10.746399 11.040128
