22

Li 0.816821 2.494789 7.395622
Li 1.722042 2.935728 2.470731
Li 3.228442 3.807167 7.371776
Li 4.168151 4.198365 2.422381
Cr 0.000282 4.263615 9.911251
Co 0.810959 3.270742 4.944449
Co 3.291416 4.494797 9.862574
Co 1.651626 2.239398 9.881474
Co 4.123646 3.472956 4.896309
Co 2.468269 1.238486 4.914468
O 0.028047 2.813079 1.040004
O 1.669126 3.637455 8.839501
O 0.821580 1.845457 3.939312
O 2.482967 4.077877 3.914186
O 2.453971 2.663580 5.923990
O 0.857189 0.431273 5.903894
O 4.114291 4.897134 5.901333
O 3.274998 3.094522 0.985248
O 1.649778 0.825588 0.945624
O 4.916705 3.920499 8.785035
O 3.290269 1.643699 8.870257
O 4.078460 2.049387 3.927703
