28

Li 1.965295 2.478983 8.633062
Li 5.988813 2.252842 9.194206
Li 0.019323 -0.000940 4.798190
Li 4.048785 -0.227912 3.661777
Mn 3.981590 2.365559 1.697876
Mn 5.022363 0.988931 6.607190
Mn 5.022840 -1.553919 6.700563
Nb 2.028980 2.474444 4.585841
Nb 3.879652 -0.218167 9.477755
Fe 1.034514 3.799867 1.922194
Fe 1.034695 1.262723 2.015379
Fe 2.065374 -0.116649 6.893825
O 1.138030 3.826181 5.544463
O 0.238357 2.576459 3.258244
O 2.031336 2.475021 0.851215
O 5.982198 2.253243 2.447432
O 0.014745 -0.000656 7.876331
O 1.136797 1.225508 5.641292
O 2.898088 3.591252 3.046014
O 2.896197 1.260460 3.133669
O 1.995202 -0.112439 0.810978
O 4.116559 2.357478 5.437154
O 3.045264 0.970501 8.081568
O 3.046279 -1.313463 8.165485
O 4.044913 -0.227733 5.729896
O 5.056745 0.985432 0.464027
O 5.775258 -0.324288 7.812555
O 5.058340 -1.552667 0.555888
