40

Li 0.271961 0.276512 0.229438
Li 6.386548 4.303181 6.058925
Li 4.080466 5.759213 6.743541
Li 2.670672 7.690506 8.000870
Li 5.541575 5.034882 9.525063
Li 7.266487 8.387781 7.392927
Co 1.253542 1.748397 1.996145
Co 3.069802 4.209961 4.937952
Co 5.596817 7.661899 9.030699
Sb 7.398103 10.059217 11.880109
P 0.447910 5.911668 5.270800
P 3.883297 2.262841 7.388578
P 6.453987 6.531165 4.628275
P 2.121482 5.128245 9.270677
P 4.702579 9.585760 6.478844
P 8.252514 5.852157 8.511813
O 1.151986 2.542180 4.851430
O 2.395493 5.138308 3.344562
O 0.480332 7.261971 4.448919
O 4.745182 3.186013 4.609777
O 2.053896 5.508238 5.610348
O 0.078676 6.169846 6.452871
O 2.285849 1.705816 7.839305
O 4.046747 3.674696 6.686687
O 5.148837 5.818439 5.341439
O 1.473012 3.683718 8.877550
O 0.821903 6.080087 8.777720
O 3.307620 1.703781 2.986798
O 5.322313 2.585639 8.441914
O 7.857052 5.775749 5.010721
O 7.001966 8.050824 4.987794
O 3.568551 5.886059 8.676758
O 4.742535 8.204475 7.241262
O 6.460501 10.006288 6.090612
O 8.349313 5.447281 7.358277
O 6.705922 6.401471 8.322150
O 4.094402 8.763863 9.234072
O 7.856403 4.500369 9.430947
O 5.948603 6.515226 10.544642
O 7.713653 9.012531 8.934411
