86

Li 0.000020 8.765531 7.273680
Li 10.095481 5.005630 0.153361
Li 0.881610 6.387217 0.848285
Li 6.855521 4.162793 8.068458
Li 3.239717 9.608360 6.541796
Li 9.214275 7.383941 13.761918
Bi 0.007198 3.816920 10.674425
Bi 10.088111 9.954163 3.935728
Bi 4.392886 2.183030 3.520445
Bi 5.702787 11.588058 11.089798
Bi 4.430067 7.115066 10.891861
Bi 5.665464 6.656154 3.718411
P 0.796485 2.253763 4.968712
P 2.140670 1.752308 12.160266
P 0.844923 6.470086 12.209205
P 3.327245 4.620461 1.850505
P 3.420123 4.585676 9.031222
P 2.220869 7.263051 5.082699
P 2.998818 8.324127 2.314391
P 6.969732 4.189005 5.064516
P 3.125729 9.582075 9.545667
P 7.096935 5.447185 12.295755
P 7.874551 6.508149 9.527313
P 6.768115 9.150682 12.759146
P 6.675226 9.185445 5.579679
P 9.250760 7.300999 2.401038
P 7.954921 12.018793 2.449948
P 9.299349 11.517677 9.641292
O 0.109425 1.879569 3.513943
O 10.011314 6.949263 1.139601
O 0.753750 2.535961 12.134985
O 2.101964 1.137064 10.709082
O 2.285177 9.826546 8.274238
O 2.490267 1.889241 4.962792
O 0.861540 3.607109 5.071469
O 2.098673 3.675896 9.538947
O 0.981464 5.140689 12.089160
O 0.048721 7.193953 8.415692
O 9.986288 11.891636 11.096259
O 0.771518 6.377205 5.118177
O 3.034556 3.327845 2.368667
O 3.662304 2.564116 12.271017
O 1.944363 5.311764 2.373757
O 3.309497 4.709556 0.358858
O 3.533950 4.626975 7.536442
O 3.132866 5.778153 9.701302
O 5.361226 3.509856 4.934074
O 5.006520 4.170741 9.570229
O 2.471702 7.143437 12.184269
O 2.144628 7.967195 3.695678
O 1.959416 7.885260 1.198533
O 2.131715 8.121572 6.191661
O 3.681981 6.575868 5.053910
O 4.865466 5.133427 2.533300
O 3.279372 8.245695 9.580779
O 5.470812 5.909199 12.247161
O 6.904454 4.092869 12.339349
O 1.838815 9.634456 13.325844
O 8.257029 4.136866 1.284360
O 7.993416 12.634019 3.901130
O 3.191157 9.678338 2.270737
O 4.624870 7.862104 2.362970
O 6.816088 5.525384 5.029419
O 5.230176 8.637717 12.077331
O 6.413520 7.195450 9.556363
O 7.963583 5.649629 8.418479
O 8.136327 5.885898 13.411496
O 7.951095 5.804084 10.914409
O 7.623910 6.627709 2.426003
O 5.088829 9.600371 5.040126
O 4.734245 10.261334 9.676139
O 6.962544 7.992788 4.909181
O 6.786186 9.061379 14.252318
O 6.561460 9.144298 7.073671
O 8.151077 8.459411 12.236715
O 6.433368 11.207226 2.338970
O 7.060783 10.443245 12.242162
O 9.324114 7.393977 9.491664
O 10.046871 6.577209 6.194738
O 9.114228 8.630348 2.520825
O 7.996878 10.095255 5.071381
O 9.233890 10.164044 9.538730
O 7.605314 11.882179 9.647468
O 7.810213 3.944489 6.336031
O 9.341720 11.235203 2.475142
O 0.084368 6.821760 13.470584
