48

Ti 1.033028 7.241476 3.103437
Ti 3.104324 1.033634 7.241524
Ti 5.171473 5.171632 5.171481
Ti 7.242090 3.103536 1.033772
Mn 1.011024 1.057644 5.172772
Mn 1.035197 3.126656 7.217737
Mn 1.057698 5.172861 1.010979
Mn 3.079986 3.102804 5.148909
Mn 3.102586 5.149033 3.080244
Mn 3.126825 7.217930 1.035371
Mn 5.148749 3.080110 3.102781
Mn 5.172698 1.011164 1.057924
Mn 5.195447 7.240445 7.264668
Mn 7.217735 1.035186 3.126933
Mn 7.240377 7.264592 5.195782
Mn 7.264285 5.195480 7.240731
O 0.876855 0.944732 3.234905
O 0.902798 7.398779 5.082453
O 0.923702 5.061579 7.351847
O 1.124869 1.192130 7.110241
O 0.944904 3.234993 0.877063
O 1.145334 2.992475 5.283259
O 1.165203 5.262617 2.945808
O 1.192008 7.110331 1.124752
O 2.945684 1.165424 5.262563
O 2.972405 3.013006 7.083567
O 2.992357 5.283306 1.145615
O 3.192970 5.040755 5.014905
O 3.012773 7.083559 2.972577
O 3.213957 3.214176 3.214194
O 3.234910 0.876943 0.944870
O 3.260820 7.330883 7.372836
O 5.014637 3.193131 5.040809
O 5.040581 5.014851 3.193147
O 5.061493 7.351894 0.924027
O 5.262552 2.945738 1.165531
O 5.082537 0.902903 7.398710
O 5.283034 1.145485 2.992538
O 5.302986 7.150828 5.330091
O 5.329683 5.303222 7.150925
O 7.083409 2.972426 3.013150
O 7.110205 1.124754 1.192221
O 7.130057 7.130213 7.130382
O 7.330488 7.372704 3.261016
O 7.150663 5.329968 5.303322
O 7.351598 0.923771 5.061661
O 7.372494 3.260814 7.330986
O 7.398520 5.082434 0.903121
