12

Li 2.595461 3.024395 3.522309
Li 7.636775 6.096910 6.594262
Li 13.126865 9.447974 9.946452
Ni 15.306456 9.373760 9.387586
Ni 5.457184 6.171122 7.153124
Sn 10.381828 6.330737 6.330737
O 3.765440 3.054537 3.316463
O 8.913600 6.194554 6.456730
O 1.425466 2.994245 3.728146
O 14.060342 9.328806 9.589538
O 6.703299 6.216076 6.951172
O 11.850041 9.350327 10.083980
