36

Li 2.313897 7.917238 0.851847
Li 3.228823 1.494808 0.801970
Mn 0.028528 6.392039 2.643589
Mn 5.514191 12.814469 4.255514
H 0.537544 9.041009 2.476268
H 0.486573 10.258958 5.116853
H 1.762346 8.357932 3.257496
H 1.735625 10.960776 0.623122
H 3.780373 1.935502 3.641607
H 3.807094 4.538346 1.030695
H 5.005175 2.618579 -0.822451
H 5.056146 3.836528 1.782250
S 1.253331 1.489143 2.754548
S 1.266445 4.894161 0.138204
S 4.289389 7.911573 4.144555
S 4.276275 11.316591 1.515613
O 0.040146 8.648675 5.160838
O 0.005720 10.563317 2.495641
O 1.303559 5.887685 4.294135
O 1.097381 8.191334 2.516411
O 1.366452 0.763498 4.071998
O 1.326999 0.523942 1.633851
O 1.005555 11.112139 -0.058773
O 1.374833 5.763566 1.408550
O 2.478726 2.337636 2.663161
O 3.063993 8.760066 4.235943
O 2.474536 4.039631 0.154999
O 3.068183 10.462061 1.498818
O 4.176267 7.185928 2.827105
O 4.445339 1.768904 4.382692
O 4.239161 12.310115 2.604968
O 4.167887 12.185995 0.245267
O 4.537165 4.689710 1.712590
O 4.215720 6.946372 0.019966
O 5.502574 2.226245 1.738265
O 5.536999 4.140887 -0.841824
