20

Li 2.675934 1.558777 6.802398
Li 2.635697 3.405923 4.170745
Li 2.651944 5.603061 1.403783
Li 2.589044 2.523330 1.849741
Li 2.568254 4.606394 -0.791071
V 5.155404 3.046428 6.231321
V 5.152542 4.982345 3.633200
V 5.195969 1.882706 4.038676
V 5.198925 3.939796 1.398337
V 5.172775 6.043703 -1.181406
O 3.984020 4.923845 4.973365
O 1.217272 3.404911 5.483338
O 4.006043 1.622876 5.397362
O 3.989016 3.722638 2.753062
O 1.191966 2.340299 3.101393
O 4.002890 5.816888 0.192899
O 1.172492 4.333973 0.582036
O 4.031673 2.671856 0.554117
O 1.175875 1.210777 0.926637
F 1.281411 0.235544 5.803316
