15

Li 2.969413 4.056293 3.052026
Li 2.969413 1.484706 3.909221
Li 2.969413 4.056293 0.627511
Li 2.969413 1.484706 1.484706
Li 0.000000 0.000000 2.424515
Li 0.000000 2.571587 -0.857196
V 0.000000 0.000000 0.000000
F 2.921029 5.338843 3.824261
F 2.969413 2.770500 4.692881
F 2.969413 5.342086 1.411170
F 3.017796 2.773743 2.279790
F 5.938825 6.847741 5.333159
F 0.000000 1.264845 3.234908
F 5.938825 6.847741 2.869144
F 0.000000 1.264845 0.770892
