44

Li 0.382553 0.919884 4.204079
Li 0.942388 2.847261 6.281768
Li 1.601531 4.696626 8.358012
Li 2.852378 0.148494 2.997762
Li 4.103226 3.915282 7.136129
Li 4.762369 5.764647 9.212373
Li 5.322203 -0.622896 8.198645
Ni 0.619917 1.880059 2.012899
Ni 1.260272 3.747822 4.138571
Ni 1.908804 5.686777 6.185183
Ni 3.795953 2.925132 2.901758
Ni 7.603703 5.903071 5.795115
Ni 4.444484 4.864086 4.948371
Ni 2.593907 -0.805088 5.199252
Ni 3.110849 1.102076 7.203472
Ni 6.655549 3.118126 5.889518
Ni 5.084840 -1.583071 3.982626
Ni 5.707396 0.333182 5.983920
Ni 6.344199 2.159981 8.062674
Ni 6.966900 4.076271 10.123561
O 0.388045 5.355850 4.687300
O 1.226758 7.339999 6.898736
O 0.209646 4.741935 6.729848
O 1.352613 0.136074 1.395372
O 0.660132 6.603278 8.865016
O 3.133942 4.607427 3.510328
O 1.980463 2.051953 3.408044
O 3.724293 6.559955 5.678897
O 2.570814 4.004481 5.576614
O 3.396909 5.805095 7.732840
O 1.661712 0.844169 5.840091
O 2.307848 2.806813 7.761301
O 5.316711 3.256058 4.399642
O 5.864102 4.977944 6.323288
O 4.352143 0.160914 4.600152
O 5.044625 2.008630 6.629125
O 4.043045 -0.547181 6.562633
O 5.495110 3.869974 8.764294
O 4.477998 1.271909 8.595405
O 6.880225 -0.785707 3.291248
O 6.278533 5.880264 10.791187
O 7.446997 1.258308 5.455747
O 6.430873 -1.292962 5.396371
O 7.032565 0.355989 7.395048
