78

Mn 0.868066 4.875790 5.806355
Mn 5.155561 9.993045 6.436766
Mn 6.869137 12.674319 2.707343
Mn 3.070971 7.284073 2.333435
Mn 9.025799 4.154802 2.370975
Mn 10.902720 6.593904 -1.240297
P 1.573128 10.480859 10.223448
P 3.875123 11.754371 8.830715
P 11.715525 10.961380 5.211463
P 1.115303 9.885905 6.322178
P 1.348530 2.207949 7.176005
P 0.663175 7.580371 4.587356
P 9.189697 12.487181 8.120659
P 5.481533 7.257300 7.767927
P 4.647584 1.776429 0.489151
P 5.032608 4.954944 5.985047
P 9.177925 9.870270 6.611531
P 9.933621 13.364471 4.397954
P 1.996131 3.138977 3.382744
P 6.146886 8.121942 4.006166
P 8.002935 5.814317 4.847185
P 8.446739 9.391685 2.564711
P 4.809234 4.193056 2.224493
P 8.707396 6.729781 1.090282
O 4.574453 12.493426 9.790475
O 2.843371 10.691871 9.224910
O 0.889280 7.289684 9.122422
O 7.669416 12.941359 8.943466
O 4.232964 7.787731 8.762055
O 5.140363 11.059824 7.888166
O 2.770581 9.863511 6.805417
O 0.992832 5.749630 7.287311
O 0.146616 6.739351 5.396090
O 1.395279 8.810043 5.200639
O 4.278406 11.693930 5.698981
O 1.189930 2.976089 6.244078
O 5.969485 8.250749 7.106126
O 9.167694 13.198696 7.139236
O 4.703857 6.127125 7.034923
O 9.443268 10.927001 7.690641
O 1.830843 11.578975 11.261181
O 7.540070 10.293991 6.151880
O 11.631869 15.061738 6.794341
O 3.393305 4.873436 5.513330
O 0.900064 4.144431 4.258242
O 5.077202 8.884838 5.022514
O 1.916230 6.869990 3.643293
O 2.258166 9.197616 2.897366
O 5.978032 12.228011 4.062118
O 9.552141 8.536199 6.925368
O 6.007087 3.763505 6.327985
O 6.134902 5.537205 5.076554
O 10.252624 11.974961 4.840685
O 2.433330 1.781675 3.843437
O 10.656354 9.977906 5.717176
O 9.043187 13.181577 3.375126
O 8.784660 6.015153 5.924787
O 5.272004 7.344357 3.175088
O 1.221209 2.872057 2.307801
O 7.053308 9.180290 3.482344
O 7.708595 7.186885 4.380797
O 3.777328 3.563983 3.142472
O 0.035789 9.246261 7.193814
O 3.699017 5.302454 1.830379
O 0.199051 0.204530 1.529869
O 7.879958 10.703943 2.226212
O 6.395136 4.433599 2.688833
O 11.611632 6.823139 4.947524
O 9.002866 4.745760 3.970762
O 10.118734 9.106685 2.994288
O 8.259907 8.298698 1.496105
O 2.972081 2.513730 0.091966
O 10.825762 12.687832 1.041456
O 5.283647 2.995950 1.205429
O 8.803273 6.039340 2.082695
O 7.111935 6.411512 0.462282
O 9.062023 3.509864 0.786433
O 10.257239 6.375847 0.282163
