99

Na 0.091790 10.955260 6.167141
Na 1.875039 7.202362 4.570831
Na 2.057018 6.818719 8.988798
Na 3.837666 3.072078 7.398709
Na 5.975666 9.704928 3.294704
Na 5.789298 10.090910 9.081988
Na 7.759445 5.948753 1.710963
Na 7.947599 5.563480 6.110991
Na 9.730535 1.822345 4.528036
Fe 1.286821 8.459055 1.722995
Fe 2.680362 5.506058 1.647030
Fe 0.698621 9.702833 9.018757
Fe 3.243214 4.316179 4.520704
Fe 4.602681 1.455424 4.409118
Fe 5.193746 11.354868 6.221016
Fe 6.581928 8.441240 6.144980
Fe 7.156246 7.203698 9.053326
Fe 9.126520 3.079339 1.680069
Fe 8.532922 4.303432 8.970458
Si 0.743485 3.123131 2.627067
Si 1.360733 1.792341 5.354061
Si 0.599312 5.217788 6.521296
Si 1.232247 3.883735 9.241264
Si 2.577902 1.101238 9.365880
Si 2.699074 10.142429 4.312187
Si 3.203504 10.916262 0.726193
Si 3.327611 8.807313 7.035695
Si 4.520600 8.099854 0.837048
Si 4.654583 6.002160 7.139430
Si 5.161114 6.768841 3.552758
Si 5.281638 4.652978 9.864713
Si 6.480606 3.961155 3.646347
Si 6.596143 1.878269 9.971956
Si 7.122455 2.636871 6.370054
Si 7.255781 11.685582 1.344559
Si 8.586916 8.883582 1.450387
Si 9.223876 7.548970 4.169124
Si 8.455426 10.979037 5.335727
Si 9.085338 9.648295 8.062496
O 0.502958 2.061727 1.475900
O 0.496253 2.261621 4.015314
O 0.283743 7.993984 -0.107252
O 0.480810 2.100387 6.643639
O 1.454565 4.951082 0.207436
O 0.958950 6.580026 2.465612
O 1.017784 0.439946 9.411624
O 0.465417 6.865707 6.531068
O 1.482857 4.911635 5.233414
O 2.232695 3.890868 2.747666
O 1.684667 10.166831 0.650938
O 1.467356 4.757925 7.859615
O 3.386700 0.780123 3.070540
O 1.494972 11.290703 4.207108
O 2.915324 2.444848 5.297630
O 2.967021 7.441808 0.903973
O 2.423519 2.736500 9.319380
O 2.473095 9.069349 3.166098
O 3.440694 0.782083 8.055954
O 2.458124 9.280233 5.701149
O 3.644408 6.038275 3.475847
O 3.455586 0.582643 10.662477
O 2.449387 9.103224 8.327618
O 4.437911 5.042743 0.957687
O 3.461388 7.160433 7.021179
O 4.928833 3.325687 3.762205
O 4.392429 9.746515 0.853850
O 4.424786 4.939302 5.984146
O 4.412887 5.143719 8.527739
O 4.214082 10.883312 4.403081
O 5.606956 1.898626 6.291357
O 5.400346 7.633861 2.168257
O 5.386239 7.833743 4.708228
O 5.417742 3.027370 9.802297
O 4.882477 9.461649 6.971892
O 6.354074 5.610462 3.663639
O 5.398805 7.800239 9.732850
O 7.369306 3.659166 2.364572
O 6.400460 12.123814 0.001919
O 6.171644 6.736930 7.218810
O 7.363886 3.493073 4.981884
O 6.379176 11.994011 2.640373
O 7.350781 3.702427 7.522112
O 7.389617 10.037809 1.345257
O 6.839616 5.321294 9.792625
O 6.900236 10.325951 5.400801
O 8.318841 1.478848 6.488866
O 6.389406 11.954680 7.663856
O 8.347556 8.021872 2.837625
O 8.124581 2.603992 10.043527
O 7.569780 8.911087 7.977322
O 8.343698 7.858200 5.461010
O 9.352725 5.903291 4.152214
O 8.811344 12.338251 1.291122
O 8.860881 6.193443 8.222070
O 8.359307 7.818947 10.486105
O 9.333287 10.671162 4.044143
O 9.528608 4.782959 10.796455
O 9.324246 10.507901 6.671874
O 9.314576 10.712542 9.215100
