17

Li 2.645826 2.457137 1.694647
Nb 0.000000 0.000000 0.868958
Te 0.000000 2.501723 3.606252
Te 2.645826 2.457137 5.163045
Te 2.645826 -0.044586 7.791971
O 0.647211 1.327140 2.216943
O 0.970854 1.436360 4.984449
O 1.035238 0.974818 7.960770
O 1.709696 3.484143 3.684417
O 1.711680 3.900527 0.644362
O 1.915012 3.725307 6.424732
O 3.376641 1.188967 6.424732
O 3.579973 1.013747 0.644362
O 3.581957 1.430130 3.684417
O 4.256415 3.939456 7.960770
O 4.320799 3.477913 4.984449
O 4.644441 3.587134 2.216943
