12

Li 4.973043 4.660062 4.770183
Li 2.494623 3.471939 5.549421
Li 3.334607 2.423804 2.733653
Li 1.686179 4.573580 8.412702
Fe 4.180641 5.770954 7.643947
Fe 0.806245 1.164107 3.454131
O 3.875850 6.274396 8.988318
O 1.042859 0.567912 2.024012
O 2.183296 4.181959 7.020727
O 4.656675 5.282136 6.376295
O 2.963519 2.750181 4.157094
O 0.265550 1.783404 4.756939
