12

Mn 0.000000 2.615710 3.351692
Mn 3.059162 1.586359 4.044834
Mn 3.059162 4.202068 2.479575
Te 3.059162 4.202068 4.938051
O 1.684191 2.313407 2.718594
O 1.658090 2.277555 4.856044
O 1.658090 4.596533 3.468351
O 4.370215 3.683954 4.082862
O 1.748109 4.720183 5.793239
O 4.460234 3.807604 6.407750
O 4.460234 6.126582 5.020057
O 4.434133 6.090730 7.157507
