12

Li 2.598039 3.011290 3.500184
Li 7.895752 6.242210 6.727857
Li 12.888529 9.314954 9.807095
Fe 0.082337 2.884156 3.858306
Fe 5.113741 3.138424 3.142062
Cu 10.392140 6.356393 6.356393
O 3.901135 3.112078 3.361626
O 9.031758 6.256931 6.508778
O 1.294928 2.910492 3.638732
O 14.183721 9.414779 9.668905
O 6.600544 6.142376 6.866038
O 11.752507 9.300224 10.026165
