24

Fe 3.960590 2.338658 1.671847
Fe 4.965213 0.916598 6.351235
Fe 4.975761 -1.642424 6.427485
Co 0.994383 3.810922 1.720733
Co 1.038423 1.262673 1.919429
Co 2.058730 -0.142290 6.530678
Te 1.952821 2.437548 4.323976
Te 3.952010 -0.269787 9.006452
O 0.963415 3.726108 5.318604
O 0.196176 2.465314 3.055566
O 1.826076 2.428127 0.902596
O 0.134098 0.032200 2.725696
O 0.202818 -0.010896 7.388783
O 1.019259 1.283620 5.440356
O 2.788425 3.500024 2.968925
O 2.771424 1.205624 3.002168
O 2.014412 -0.098422 0.836964
O 3.895900 2.285592 5.277390
O 3.103120 0.932392 7.698454
O 3.075424 -1.355547 7.773051
O 3.780171 -0.287356 5.490191
O 4.918311 0.911500 0.723031
O 5.674624 -0.409528 7.656652
O 4.920942 -1.595572 0.794113
