40

Li 1.720305 4.527702 11.996325
Li 3.774650 5.166385 13.461947
Li 4.183771 3.650685 14.594736
Li 4.955482 4.709532 -0.222416
Li 3.749459 5.163261 3.421062
Li 4.198461 3.607403 4.508730
Fe 2.929603 4.028906 18.303194
Fe 1.258136 1.736097 17.905187
Fe 4.608814 6.321850 18.689664
Fe 0.399968 0.550616 12.668148
Fe 2.060943 2.823241 13.059345
Fe 2.943961 4.025164 8.235608
Fe 1.271026 1.734361 7.838758
Fe 4.620241 6.318105 8.632574
Fe 0.436711 0.531228 2.572152
Fe 2.094282 2.844094 2.997056
O 1.105937 4.783624 19.101996
O 1.461281 3.052846 19.674453
O 3.090125 5.337296 20.110762
O 0.421271 3.615553 13.732014
O 0.978080 4.740603 9.094715
O 2.101695 4.121555 14.939357
O 0.676690 1.866072 14.377300
O 1.341681 3.136502 9.765007
O 3.045169 5.464283 10.174109
O 4.426234 4.834218 16.770745
O 2.723581 2.714259 16.535542
O 0.396005 3.551715 3.674857
O 1.752733 1.464394 11.341679
O 2.168508 4.138637 4.844103
O 3.532197 3.596509 11.539103
O 4.789252 3.450748 17.613998
O 0.740299 1.851152 4.275527
O 3.928715 2.344127 12.446464
O 4.545391 4.912341 6.697421
O 2.843774 2.583979 6.302058
O 1.717278 1.523968 1.321159
O 3.636639 3.602829 1.417200
O 4.912820 3.312777 7.375677
O 3.959318 2.341699 2.361604
