88

Li 5.426342 1.436123 -0.071362
Li 4.858652 8.260180 7.241092
Li 10.001149 12.211992 6.402174
Li 0.283845 5.387934 0.767556
Co 2.571249 0.000000 4.004324
Co 7.713746 0.000000 3.165406
Co 7.713746 6.824057 3.165406
Co 2.571249 6.824057 4.004324
P 10.265854 11.708554 2.559935
P 2.350790 10.246841 8.431954
P 7.934205 3.422783 -1.262224
P 5.161638 1.939561 3.770877
P 6.833227 5.830188 6.029056
P 0.019140 4.884496 4.609795
P 1.809089 5.696259 6.897371
P 8.475905 12.520316 0.272359
P 5.144420 11.738975 3.399115
P 5.140574 4.914918 3.770615
P 1.690730 0.993869 6.867974
P -0.001923 1.909139 4.609533
P 3.333408 7.951856 1.111277
P 8.594265 7.817927 0.301756
P 3.451768 12.654245 1.140674
P 2.791707 3.401274 -0.423307
P 0.001923 8.733196 4.238033
P 7.493287 10.225331 7.593037
P 5.123357 8.763618 3.398853
P 6.951587 1.127798 6.058453
O 5.758249 4.878669 5.242585
O 9.269721 3.590287 -0.515089
O 6.666466 11.960552 3.329078
O 4.324223 7.858571 4.294843
O 1.122566 6.258370 8.063802
O 2.542841 0.251890 5.861612
O 8.056431 2.273639 6.470834
O 2.513447 6.626596 5.954157
O 7.771547 13.450654 1.215573
O 4.526745 11.702726 1.927145
O 0.264098 3.389960 4.090658
O 7.824659 4.728621 6.650984
O 9.669242 8.769446 1.088227
O 4.019931 7.389744 -0.055154
O 7.371060 11.374475 -0.140022
O 0.696315 4.822438 6.052815
O 4.158491 13.496593 0.167435
O 9.300988 6.975579 -0.671483
O 3.618528 5.136495 3.840652
O 10.020896 10.214017 3.079072
O 9.466720 12.613601 3.455926
O 3.646946 1.730444 3.846094
O 0.984007 0.151521 7.841213
O 5.406595 3.434098 3.251741
O 8.727209 10.450975 6.760733
O 6.700283 3.197139 -0.429921
O 7.685339 6.572168 5.022694
O 3.584711 10.021196 7.599651
O 2.599656 13.396225 2.147036
O 4.446182 8.825676 1.955833
O 2.460335 11.552678 0.518746
O 4.127224 3.233771 0.323829
O 8.789443 5.093613 3.007176
O 9.588680 11.646496 1.116915
O 2.682162 2.095436 7.489901
O 5.960771 1.034513 2.874887
O 6.126504 6.672536 7.002295
O 2.629050 7.021518 2.054491
O 6.638048 8.554502 3.323637
O 0.615752 1.945389 6.081503
O 0.818274 5.789544 3.713804
O 9.162428 13.082427 -0.894072
O 4.338797 12.664891 4.244238
O 1.495551 11.917670 4.162554
O 8.761026 1.687562 3.001734
O 2.913934 4.550418 7.309752
O 0.803700 0.983224 3.764410
O 6.157770 10.057828 6.845901
O 1.557786 3.626918 0.408997
O 1.523969 8.511619 4.167996
O 1.015273 10.414344 7.684819
O 6.265063 0.565687 7.224884
O 5.946197 5.840833 2.925492
O 4.878399 10.258155 3.917989
O 7.655944 0.197461 5.115239
O 2.228563 9.097697 0.698896
O 7.742153 7.075947 1.308118
O 9.481294 7.807281 3.405320
O 5.838812 2.001619 5.213898
O 7.602832 8.919493 -0.320171
