40

Li 2.216098 7.782535 8.049259
Li 6.922889 4.941232 6.676729
Li 6.868843 9.167098 6.537106
Li 6.923927 6.543350 9.723776
Mn 0.222276 7.874224 9.948678
Mn 0.419536 5.266782 6.626639
Mn 4.296785 6.174360 7.213140
Mn 3.994837 8.741641 10.492564
Mn 8.501321 7.265132 7.904258
P 2.099374 3.134282 5.869702
P 2.134907 8.510705 5.356024
P 2.082756 5.497417 9.477127
P 6.522398 6.998984 5.006360
P 6.661065 3.998428 9.202888
P 6.321419 9.300898 8.600896
W 4.822537 3.804548 4.050784
O 0.466503 0.972708 2.819505
O 0.433903 4.407697 2.238558
O 0.454825 2.835629 4.946542
O 1.999252 1.790342 6.701046
O 3.603040 3.478865 5.295966
O 2.417749 4.414059 6.473566
O 2.045922 8.262420 4.140045
O 2.448438 7.278156 6.246187
O 4.957931 7.240878 4.217688
O 2.461740 5.757900 8.286791
O 6.693299 5.506234 4.890794
O 5.255811 10.547751 11.259329
O 3.602909 2.031399 3.253527
O 1.964391 6.886179 9.715507
O 6.355302 6.796601 6.277640
O 3.571932 5.034009 2.968145
O 6.429197 5.354595 8.421884
O 6.617772 4.333367 10.426571
O 6.363682 8.077572 8.026558
O 4.612472 8.893918 8.863819
O 6.537655 10.583533 7.607981
O 7.758496 9.768000 9.604895
O 8.115738 8.066189 12.155688
O 8.387827 11.583614 11.902818
