30

Li 5.520137 3.639108 0.000000
Li 0.890562 4.377997 2.395935
Li 5.520137 3.639108 4.791871
Li 4.859257 -0.587467 7.187806
Cr 4.240286 -0.097722 2.395935
Cr 1.211501 3.691771 7.187806
C 2.591395 4.361228 0.183768
C 1.294584 1.401309 2.395935
C 2.591395 4.361228 4.608103
C 5.368686 0.886395 4.975639
C 1.868143 0.683695 7.187806
C 5.368686 0.886395 9.399974
O 1.440726 4.856545 0.585413
O 3.699783 4.353879 0.958499
O 4.862423 1.173207 0.988419
O 2.379607 0.642109 2.395935
O 1.475099 2.582701 2.395935
O 0.087152 0.826194 2.395935
O 4.862423 1.173207 3.803452
O 3.699783 4.353879 3.833372
O 1.440726 4.856545 4.206458
O 5.530712 -0.260678 5.377284
O 5.704413 1.845766 5.750370
O 2.734799 3.835204 5.780290
O 3.160874 0.473529 7.187806
O 0.891946 -0.180731 7.187806
O 1.409519 1.855843 7.187806
O 2.734799 3.835204 8.595323
O 5.704413 1.845766 8.625243
O 5.530712 -0.260678 8.998328
