16

V 1.214044 0.902968 0.365040
V 5.599842 2.708903 2.801755
V 8.027929 0.902968 2.071676
V 12.413727 2.708903 4.508392
O 0.784960 2.708903 4.762074
O 1.418937 0.902968 1.954821
O 5.394948 2.708903 4.391537
O 6.028926 0.902968 2.325358
O 7.598845 2.708903 2.548074
O 8.232822 0.902968 0.481895
O 12.208833 2.708903 2.918610
O 12.842811 0.902968 0.111358
F 2.828335 0.902968 4.521857
F 3.985551 2.708903 2.085142
F 9.642220 0.902968 2.788290
F 10.799436 2.708903 0.351574
