26

Na 0.698335 1.760150 3.955669
Na 2.286190 0.046890 1.356005
Na 2.286190 3.473410 1.356005
Na 6.506309 3.567191 3.957095
Na 6.506309 6.993711 3.957095
Na 8.094163 5.280451 1.357431
Mn 2.982310 5.280451 4.102944
Mn 5.810189 1.760150 1.210156
B 0.587576 5.280451 3.794662
B 8.204923 1.760150 1.518438
P 3.668714 1.760150 3.756719
P 5.123785 5.280451 1.556381
O 0.738869 1.760150 1.532571
O 1.233561 5.280451 5.036663
O 1.549792 5.280451 2.756744
O 2.811630 0.510591 4.058732
O 2.811630 3.009709 4.058732
O 4.078154 1.760150 2.229678
O 3.802536 5.280451 0.746873
O 4.989963 1.760150 4.566228
O 4.714344 5.280451 3.083422
O 5.980869 4.030892 1.254368
O 5.980869 6.530010 1.254368
O 7.242707 1.760150 2.556356
O 7.558938 1.760150 0.276438
O 8.053630 5.280451 3.780530
