14

Li 2.789755 4.386295 4.491717
Li 4.741523 -0.104127 2.501548
Mn 1.021910 2.172252 2.371917
Mn 4.013177 6.536322 2.645689
P 2.924369 1.045242 4.508314
P 0.853472 5.511676 2.388088
O 1.271687 1.311464 0.724603
O 2.795998 0.764921 3.214248
O 3.679339 2.377892 4.891713
O 1.339553 4.191229 3.090013
O 2.186666 5.712591 1.726894
O 4.492391 5.160461 3.935651
O 0.414094 6.865906 -0.958693
O 3.976914 8.569837 3.479266
