26

Li 4.486511 8.336844 4.730231
Li 7.660863 3.687498 2.207818
Cr 1.351978 0.213275 5.077076
Cr 2.697146 4.862621 2.441665
Cr 5.374403 4.375890 5.037240
Cr 6.772971 9.025236 2.401830
P 1.834756 7.949982 2.810759
P 2.214369 3.300636 0.288346
P 5.728183 5.966478 2.812725
P 6.419191 1.317132 0.290312
O 0.476331 8.624109 3.333158
O 1.239729 4.098315 1.240685
O 1.757037 6.462377 3.146053
O 1.983747 3.544540 3.966686
O 2.065378 8.193886 1.331276
O 2.292088 1.813031 0.623640
O 2.809396 8.747660 3.763098
O 3.572794 3.974763 0.810745
O 4.362754 5.379953 3.420182
O 5.423625 0.327770 0.977159
O 5.806591 7.437707 3.344279
O 6.382571 1.262409 3.906854
O 5.764804 5.911755 1.271444
O 6.340784 2.788361 0.821866
O 6.723750 4.977115 3.499572
O 7.784621 0.730608 0.897769
