12

Co 2.854116 1.044679 -0.603145
Co 2.854116 -1.427058 -1.427058
Co 0.000000 2.471737 0.823912
Te 2.854116 1.044679 1.820289
O 4.235924 1.425396 2.782504
O 4.235924 -0.842907 2.026403
O 1.558747 2.814186 4.389074
O 1.616714 0.466698 3.336008
O 4.091517 1.622660 0.304570
O 4.149485 -0.724828 -0.748495
O 1.472307 2.932265 1.614175
O 1.472307 0.663962 0.858074
