48

Fe 0.341361 7.176624 4.883941
Fe 2.275808 10.709357 2.892880
Fe 2.973480 3.574713 2.892880
Fe 4.907927 0.041980 4.883941
Fe 5.590650 7.176624 0.373986
Fe 7.525096 10.709357 2.365047
Fe 8.222769 3.574713 2.365047
Fe 10.157216 0.041980 0.373986
P 0.364217 5.361043 2.267265
P 2.299724 1.827139 0.267550
P 2.949565 8.961783 0.267550
P 4.885072 12.495686 2.267265
P 5.613505 5.361043 2.990661
P 7.549012 1.827139 4.990377
P 8.198853 8.961783 4.990377
P 10.134360 12.495686 2.990661
O 0.109815 5.703705 0.781601
O 0.481108 11.254144 2.618069
O 0.026498 13.724158 2.131043
O 0.795813 1.519394 0.052684
O 1.859854 5.045035 2.509835
O 2.547984 10.202212 4.696396
O 2.137458 7.718158 5.086645
O 2.571941 2.116949 1.763740
O 2.677347 9.251592 1.763740
O 3.111831 0.583514 5.086645
O 2.701305 3.067569 4.696396
O 3.389434 12.179679 2.509835
O 4.453475 8.654037 0.052684
O 5.222790 6.589514 2.131043
O 4.768181 4.119500 2.618069
O 5.139473 12.838349 0.781601
O 5.359104 5.703705 4.476325
O 5.730396 11.254144 2.639858
O 5.275787 13.724158 3.126884
O 6.045102 1.519394 5.205242
O 7.109143 5.045035 2.748092
O 7.797272 10.202212 0.561531
O 7.386746 7.718158 0.171282
O 7.821230 2.116949 3.494187
O 7.926635 9.251592 3.494187
O 8.361119 0.583514 0.171282
O 7.950593 3.067569 0.561531
O 8.638722 12.179679 2.748092
O 9.702764 8.654037 5.205242
O 10.472078 6.589514 3.126884
O 10.017469 4.119500 2.639858
O 10.388762 12.838349 4.476325
