24

Li 0.818631 3.256086 5.052005
Li 0.000000 2.177334 -0.000001
Li 0.412760 0.507037 7.340951
Li 2.519470 0.917598 5.606716
Li 1.616205 -0.118837 10.111878
Li 3.422735 1.954034 1.101554
Li 4.626180 1.328160 3.872481
Li 4.220309 -1.420889 6.161427
Cr 2.086776 2.563404 7.872588
Cr 1.265651 1.554733 2.805236
Cr 3.773289 0.280464 8.408195
Cr 2.952164 -0.728207 3.340843
O 0.222222 3.424134 8.394623
O 0.607943 2.012916 6.330936
O 2.073010 1.280383 8.940218
O 1.577098 2.842185 1.830299
O 1.170405 0.234220 3.889172
O 2.624159 2.318655 4.310521
O 2.414781 -0.483458 6.902911
O 3.868535 1.600977 7.324260
O 3.461843 -1.006988 9.383133
O 2.965930 0.554814 2.273214
O 4.430997 -0.177719 4.882496
O 4.816718 -1.588937 2.818809
