20

Li 1.553588 6.333339 6.073217
Li 4.326810 9.482131 11.319200
Li 1.583750 1.770740 2.970029
Li 4.345007 14.068369 14.472624
Zr 0.023185 0.032433 0.039090
Nb 0.014802 4.646195 3.168697
Te 2.792606 7.739990 8.414799
Te 2.813779 12.384099 11.577161
O 0.623171 8.260770 9.033783
O 1.369276 7.358423 8.131711
O 3.458105 10.083113 11.896084
O 4.030621 12.533368 11.611467
O 2.192888 9.786667 7.991195
O 0.750129 3.940864 6.069233
O 4.834894 11.678851 10.715060
O 1.346660 2.710005 4.980529
O 3.396471 5.582265 8.742149
O 4.092958 7.982937 8.534841
O 2.092257 5.239206 4.798597
O 4.914920 7.206232 7.689460
