22

Li 0.802734 2.623878 7.726279
Li 1.804104 3.124564 2.563295
Li 3.393770 3.932942 7.731234
Li 4.395141 4.433627 2.568250
Mn 0.852218 3.422668 5.143924
Mn 3.446581 4.727688 0.006592
Mn 1.751294 2.329818 10.287937
Mn 4.345657 3.634838 5.150605
Mn 2.598937 1.299469 5.147264
Fe 0.000000 0.000000 0.000000
O 0.110366 2.934353 1.094522
O 1.730923 3.744631 9.193587
O 0.818785 2.031709 4.040437
O 2.710109 4.191306 4.044054
O 2.487765 2.866199 6.250475
O 0.903801 4.910469 6.085103
O 4.379090 5.025796 6.254092
O 3.466951 3.312874 1.100942
O 1.755405 5.336271 0.987366
O 5.087508 4.123153 9.200007
O 3.442469 1.721234 9.307162
O 4.294073 2.147037 4.209425
