96

Li 2.291421 1.832228 9.578652
Li 4.006967 5.874565 6.003234
Li 9.071467 3.304209 11.177045
Li 6.469664 -0.375597 4.478240
Mn 0.024863 5.362314 2.636920
Mn 2.318903 -1.152631 2.577411
Mn 4.689983 3.081134 7.788473
Mn 6.957016 -3.457368 7.738383
H 9.303522 5.746098 13.658540
H 0.853854 7.442878 8.613031
H 1.037571 7.312228 7.188199
H 2.411404 6.754373 13.766044
H 0.194509 2.681926 1.675412
H 4.331468 8.334772 13.708982
H 2.697585 5.187198 3.608592
H 1.791562 3.304501 6.947031
H 1.790239 3.288888 11.961151
H 2.902335 5.109820 8.650746
H 4.647376 8.018563 8.489569
H 0.336914 0.250422 7.108814
H 2.236540 1.737420 6.849390
H 4.453474 5.723476 8.639022
H 3.380844 1.226865 1.803030
H 5.519179 5.101977 12.375911
H 3.609181 1.171317 3.226482
H 5.980597 4.903852 13.767825
H 4.865714 0.401935 6.995677
H 7.102804 4.461194 8.760477
H 9.022336 6.045653 8.541200
H 4.597873 -1.985215 7.067578
H 6.374115 1.075267 6.815233
H 7.509649 2.868351 3.472317
H 7.486584 2.863643 8.793217
H 6.584680 0.981366 12.061780
H 5.045479 -2.050512 1.952222
H 9.103962 3.420043 13.905972
H 6.925284 -0.587681 1.757038
H 8.063763 -1.062633 8.380473
H 8.504324 -1.316522 6.986432
H 9.221066 -4.348174 1.871651
S 2.086158 9.411704 15.116045
S 0.171360 5.467797 10.059757
S 4.720653 3.294040 4.921869
S 2.387557 -0.840597 5.654541
S 6.729751 7.127554 9.952522
S 4.679704 2.910271 10.699939
S 9.157119 0.581705 5.478355
S 6.986157 -3.184223 0.480504
O 0.528925 9.348155 14.588243
O 1.588331 8.751755 11.129244
O 0.176066 5.999417 11.412614
O 2.058639 9.214343 6.078869
O 1.447901 7.723541 7.965332
O 0.765929 6.373624 5.765459
O 0.356587 4.060306 6.183448
O 3.027062 8.245756 14.552622
O 1.680991 4.992702 9.752873
O 2.203411 5.831627 13.389183
O 0.839167 3.396565 2.041642
O 0.387545 10.570928 7.866003
O 2.432857 2.611921 7.353849
O 3.776645 5.097717 8.133842
O 3.505012 4.363026 4.747479
O 1.566338 0.413088 6.201694
O 5.206048 6.973800 9.375271
O 3.290383 2.517055 11.237484
O 4.950266 4.333504 10.973711
O 2.649694 -0.065521 9.642191
O 4.210254 2.624593 9.348433
O 5.868842 5.568227 13.152494
O 2.516673 -0.697599 4.358275
O 6.669987 6.903850 11.241138
O 3.465648 0.608520 2.455712
O 5.208601 3.560614 6.254352
O 6.079910 6.464308 5.925572
O 4.260335 1.911395 4.656541
O 6.020110 3.555469 4.248553
O 3.937558 -0.922793 6.196642
O 7.757118 6.013384 9.412764
O 5.953068 1.986049 10.984555
O 5.530558 1.106313 7.359312
O 6.848951 3.551521 8.387138
O 4.286484 -2.107729 2.587302
O 5.045302 -2.485538 7.754550
O 8.467076 2.772726 13.393791
O 7.102785 0.306287 2.244779
O 7.545108 0.921589 5.656032
O 6.251867 -1.893645 1.045295
O 9.022280 2.146537 9.504353
O 8.413910 -0.192079 9.779756
O 7.878313 -1.614308 7.605955
O 7.164879 -3.026832 9.523221
O 9.219510 0.048915 4.148767
O 7.199779 -2.297996 4.514169
O 8.529681 -3.350538 1.026408
O 8.902632 6.339556 13.005453
