30

Li 2.824189 4.374040 8.749422
Li 1.728414 5.903230 0.977408
Li 0.000000 7.380859 1.369552
Li 0.157682 3.392800 1.535631
Li 1.870477 3.012112 3.013067
Li 2.012555 7.772526 2.847307
Li 3.583287 1.534535 3.393295
Li 0.916769 0.000009 4.373978
Li 3.583287 7.213492 5.357557
Li 2.012555 0.975501 5.903545
Li 1.870477 5.735933 5.737767
Li 0.157682 5.355227 7.215221
Li 0.000000 1.367168 7.381301
Li 1.728414 2.844797 7.773444
Co 0.000000 5.387079 3.362688
Co 0.000000 3.360948 5.388164
Co 1.870485 1.012829 1.013156
Co 1.870485 7.735198 7.737696
O 1.870485 7.863540 0.887026
O 1.982586 2.888091 1.008452
O 3.647961 5.379241 1.487292
O 1.758383 1.007519 2.888416
O 0.093008 7.262472 3.371132
O 0.000000 3.490856 3.491984
O 0.000000 5.257171 5.258868
O 0.093008 1.485555 5.379720
O 1.758383 7.740508 5.862436
O 3.647961 3.368787 7.263560
O 1.982586 5.859936 7.742400
O 1.870485 0.884487 7.863826
