20

V 1.502125 1.289887 5.581107
V 1.502125 1.250461 1.920217
V 6.046470 3.830235 3.638506
V 6.046470 3.790808 -0.022383
F 0.261581 4.816662 5.183107
F 0.261581 2.804381 1.522218
F 1.392452 1.816730 3.739017
F 2.301166 2.801348 6.041442
F 1.392452 0.723618 0.078127
F 2.301166 4.819695 2.380552
F 2.912338 0.251261 5.235131
F 2.912338 2.289087 1.574241
F 4.636256 2.791608 3.984482
F 4.636256 4.829435 0.323593
F 5.247428 0.261000 3.178171
F 6.156143 4.357077 5.480596
F 5.247428 2.279347 -0.482718
F 6.156143 3.263966 1.819706
F 7.287013 2.276314 4.036506
F 7.287013 0.264034 0.375616
