46

Li 3.929525 0.778865 3.894491
Li 1.299885 3.397725 9.124498
Li 2.591215 3.632135 6.437341
Li 4.011282 3.559453 3.922694
Li 0.044228 7.913585 7.208408
Li 3.976805 5.060315 8.550932
Li 1.335558 7.679175 4.521251
Li 3.895048 7.840903 8.522728
Cu 5.265780 2.196068 5.934857
Cu 2.628987 2.040360 1.726924
Cu 0.006457 6.321810 2.421551
Cu 2.640551 6.477518 6.510566
Ni 0.039437 0.674705 2.350807
Ni 2.613237 0.781382 6.526852
Ni 1.318644 2.183720 4.463940
Ni 5.245508 3.516022 1.194587
Ni 3.927006 2.145358 8.555615
Ni 0.022206 5.062832 7.118897
Ni 2.596007 4.956156 1.797667
Ni 1.316799 6.465170 9.181809
Ni 3.979325 6.426809 3.889808
Ni 2.660823 7.797472 1.753560
O 0.650227 0.920538 5.864698
O 2.004935 0.715285 2.936997
O 0.348158 2.202284 1.040168
O 3.392675 0.686754 0.597129
O 2.276528 2.149914 7.822639
O 4.506092 0.914450 7.148618
O 0.557502 3.534611 5.933072
O 3.007415 2.119789 5.125666
O 1.978053 3.338658 2.945597
O 4.884589 2.144862 2.551474
O 3.239550 3.380694 0.502106
O 0.630509 4.996735 1.211478
O 4.753634 3.582573 7.136636
O 1.985216 5.201988 7.781052
O 0.358916 6.431364 5.823110
O 3.400239 5.195900 5.296805
O 2.287286 6.483735 3.108306
O 4.513656 4.968204 2.351018
O 0.657390 7.620108 1.202877
O 3.021742 6.426312 0.396673
O 2.077942 7.816062 7.712677
O 4.898915 6.401240 7.319757
O 3.152697 7.864023 5.308787
O 4.666780 7.662144 2.446042
