33

Li 2.603268 8.250596 3.646886
Li 7.840384 5.271384 3.397470
Li 2.629634 5.838838 1.954263
Li 5.241865 4.352831 1.829857
Li 0.012410 4.869005 0.427729
Li 5.220484 1.906315 0.179697
Mn 7.838594 7.731067 2.147905
Mn 2.616447 3.387660 3.204549
Mn 5.243647 9.207242 2.271488
Cr 2.587294 0.947414 1.542487
Cr 5.236512 6.780005 0.608667
Cr 0.008980 2.414127 1.665278
Cr 2.645607 5.827916 -0.935069
Cr 5.223922 4.361203 -1.057860
Cr 7.845737 10.158315 3.810719
O 6.488051 8.400443 0.920337
O 3.849399 7.494320 -0.636900
O 6.543389 5.961803 -0.765200
O 6.594198 8.537877 3.499048
O 3.981268 7.657481 2.015803
O 6.667126 6.129590 1.887890
O 1.383503 6.595114 0.436377
O 4.006841 5.187881 0.361282
O 6.538860 3.662412 0.190855
O 1.251633 6.431946 3.585353
O 3.808716 4.931357 3.411515
O 6.415115 3.494622 3.339444
O 1.250440 4.106198 2.009101
O 3.919635 2.587787 1.881982
O 1.226052 1.587439 0.246138
O 1.313259 4.187532 4.527111
O 3.982453 2.669122 4.399991
O 1.424186 1.843973 2.997582
