20

V 2.122934 4.995759 6.013508
V 2.122934 2.660287 1.169189
V 3.799490 2.443744 8.147569
V 3.799490 0.108272 3.303250
F 0.715139 0.740406 6.634675
F 0.715139 1.811609 1.790356
F 1.409341 3.479510 5.444047
F 1.409341 4.176536 0.599727
F 2.043645 1.956901 9.022052
F 2.043645 0.595115 4.177733
F 2.726660 4.082153 7.572626
F 2.726660 3.573893 2.728307
F 3.195764 1.530137 6.588451
F 3.195764 1.021878 1.744132
F 3.878779 4.508916 5.139025
F 3.878779 3.147130 0.294706
F 4.513082 0.927494 8.717031
F 4.513082 1.624521 3.872711
F 5.207285 3.292421 7.526402
F 5.207285 4.363625 2.682083
