18

Li 1.317391 1.517858 4.535755
Li 2.295784 0.067983 7.200870
Li 3.069660 2.353873 0.429814
Li 4.210998 0.981740 3.085092
Li 3.346364 -1.291897 2.415457
Li 5.218709 -0.398593 6.302584
V 0.907405 0.447000 1.915956
V 4.447626 2.136055 5.702395
O 0.649740 0.391392 5.996684
O 1.223513 1.416587 0.595745
O 3.226004 2.371984 4.475016
O 2.222449 0.273285 3.076626
O 4.018585 1.130230 6.968354
O 4.630833 2.290789 1.756192
F 0.045655 3.008056 5.568868
F 2.022287 3.951115 1.449382
F 3.451945 -1.384245 6.357747
F 5.270971 -0.516380 2.247776
