24

Co 2.769025 1.514547 4.734614
Co 7.301733 4.543640 0.167940
Sn 2.247995 4.543640 2.293600
Sn 7.822763 1.514547 2.608954
P 0.982795 1.514547 2.062468
P 4.080288 4.543640 4.466772
P 5.990470 1.514547 0.435782
P 9.087963 4.543640 2.840086
O 0.510547 4.543640 3.349219
O 1.131611 1.514547 3.567906
O 1.696983 0.294204 1.351015
O 1.696983 2.734890 1.351015
O 3.318526 3.350735 3.734986
O 3.318526 5.736545 3.734986
O 3.823857 4.543640 1.020055
O 4.506725 1.514547 0.717759
O 5.564033 4.543640 4.184795
O 6.246901 1.514547 3.882499
O 6.752232 0.321641 1.167568
O 6.752232 2.707452 1.167568
O 8.373775 3.323297 3.551539
O 8.373775 5.763983 3.551539
O 8.939147 4.543640 1.334648
O 9.560211 1.514547 1.553335
