61

Mn 0.003733 2.948518 8.901616
Mn 1.173571 1.785627 1.814023
Mn 0.589798 5.321780 3.907487
Mn 0.610815 2.412233 15.651607
Mn 1.772962 1.195081 8.565881
Mn 0.612888 5.290358 14.284602
Mn 1.773121 4.147834 7.122000
Mn 2.919787 2.984331 0.029165
Mn 2.351944 0.587037 15.286861
Mn 1.739428 4.174718 17.468640
Mn 2.955535 2.972492 10.333021
Mn 4.130831 1.811761 3.241490
Mn 3.543715 5.346734 5.341520
Mn 2.930673 5.923176 -1.378437
Mn 3.370465 1.040236 18.756794
Mn 4.138392 1.801152 13.545430
Mn 5.311969 0.637820 6.453107
Mn 4.137287 4.751041 12.095016
Mn 5.313038 3.593038 5.006642
Mn 5.319459 0.600943 16.757966
Mn 4.768800 4.197143 18.979039
O 0.702000 2.052890 3.391737
O 0.670451 5.040907 2.143741
O 0.474667 2.684198 7.319146
O 1.635727 1.511154 0.243413
O 0.509063 5.602829 5.671894
O 0.845313 1.865891 14.081977
O 2.042960 0.726710 6.983593
O 0.401663 2.831423 17.304026
O 1.503395 1.661731 10.147979
O 2.674804 0.496786 3.074573
O 0.873300 5.224005 12.462000
O 2.055560 4.070074 5.356606
O 0.461530 5.524141 16.010845
O 1.491327 4.225398 8.886790
O 2.662913 3.065611 1.797976
O 1.941208 0.847476 16.924114
O 1.974322 4.026179 15.742112
O 3.036696 2.692811 8.569707
O 4.198660 1.524111 1.475361
O 3.072480 5.611968 6.924431
O 2.835389 0.334294 13.723006
O 2.872679 3.252891 12.095755
O 1.673513 4.434038 19.292273
O 4.049097 2.094237 5.003073
O 4.013520 5.081547 3.758901
O 3.124768 2.814769 18.974916
O 4.422372 1.722242 11.782824
O 5.593444 0.558428 4.689490
O 3.848824 1.867292 15.311547
O 5.030871 0.716123 8.216841
O 4.409501 4.281986 10.517587
O 5.582841 3.120926 3.426068
O 3.190996 5.516088 17.706380
O 3.857483 5.210900 13.664337
O 5.044014 4.061559 6.587862
O 5.404246 0.344187 14.990561
O 4.222866 4.428242 20.549955
O 5.435429 3.264374 13.349989
O 5.146499 0.805451 18.533400
O 5.189849 3.988855 17.327564
