15

Li 10.102918 11.365187 16.831555
Li 5.050459 9.885971 12.031869
Li 5.051843 7.084531 10.032059
Cu 0.001233 -0.000144 0.000990
Ni -0.001334 2.802077 2.000136
Ni 5.054783 4.284432 6.804246
Ni 5.046670 7.078684 8.795475
O 9.951201 13.820973 17.968623
O 0.246069 3.263413 3.045164
O 5.025120 9.641317 11.314381
O 0.157183 0.355182 2.102061
O 5.143396 7.113888 9.532709
O 9.858172 10.906726 17.019982
O 5.075645 4.525271 8.746171
O 4.957784 7.052450 10.528206
