36

Li 0.038806 6.498882 1.314387
Li 0.049892 10.551644 3.999477
Li 2.369766 15.149651 1.288555
Li 2.380852 2.129589 3.809348
V 0.090357 4.847259 4.038558
V 4.559872 1.191413 1.325090
V 0.005855 16.244551 3.904923
V 0.005254 12.222915 1.297676
V 2.228911 9.613468 1.277852
V 2.421318 13.498029 3.770267
V 2.336215 3.800860 1.305266
V 2.336816 7.822496 3.903902
O 1.130157 4.933271 0.352100
O 1.057464 10.788705 0.612384
O 3.461117 13.584058 2.250842
O 3.388424 2.366650 1.990558
F 1.108316 12.129983 3.064360
F 1.105640 6.449416 3.104607
F 1.009502 0.692062 3.070019
F 1.008588 16.465310 0.421416
F 1.292564 7.946807 0.418261
F 1.252141 9.218918 3.083986
F 1.230104 15.015409 3.052178
F 1.213712 2.197319 0.438861
F 1.242281 3.574107 3.014987
F 1.247190 13.602344 0.330917
F 3.439276 3.707928 4.744465
F 3.436600 15.100185 4.704218
F 3.340462 9.342832 4.738806
F 3.339548 8.043255 2.181525
F 3.583101 0.796863 4.724839
F 3.623525 16.597560 2.184680
F 3.561064 6.593354 4.756647
F 3.544673 10.848088 2.164081
F 3.578150 5.180289 2.272025
F 3.573241 12.224876 4.793838
