50

Li 2.443248 0.022986 5.612645
Li 3.415993 4.594806 3.146802
V -0.000427 4.154980 -0.762260
V 4.714448 2.028306 2.232326
V 9.217012 4.163926 0.986088
V 4.698566 -2.076141 -0.401575
P 2.418507 -0.166309 1.250499
P 2.182551 2.275981 4.610477
P 5.679540 -0.349223 4.228680
P 1.028367 5.891248 3.970453
P 3.605893 4.508231 0.385303
P 8.262610 -1.659634 0.705959
P 7.058887 1.935328 -0.109467
P 6.839166 4.307849 3.361650
H 4.797301 -1.926745 3.118045
H 0.059625 4.236842 2.811806
H 4.468489 2.065017 5.828460
H 9.051659 4.133610 4.567320
O 1.410702 1.106775 4.226516
O 0.962529 3.193225 5.092856
O 1.384196 0.170656 0.103528
O 9.232931 -1.335665 -0.542568
O 4.593916 -0.644154 5.372159
O 3.254216 1.856629 5.747138
O 3.657707 -1.089675 0.848605
O 3.290678 0.984739 1.697031
O 5.568453 -1.231617 3.129994
O 0.930849 4.977667 2.903496
O 7.697750 4.843532 2.182727
O 3.079482 2.835364 3.453496
O 5.277683 0.942777 3.642234
O 0.676644 7.186661 3.447008
O 2.734650 5.819745 4.428786
O 7.349509 -0.363976 4.736418
O 1.910207 4.513569 -0.124829
O 6.574112 -1.674424 0.178646
O 8.691047 -2.950061 1.187254
O 4.010675 3.190176 0.934436
O 6.204835 1.405923 1.133930
O 1.581340 -0.657825 2.464486
O 3.764336 5.358515 1.477509
O 8.430601 -0.752950 1.728763
O 6.025951 3.151184 2.901288
O 5.541250 5.172624 3.784966
O 5.957772 2.246056 -1.191718
O 4.619428 4.793754 -0.796182
O 0.008433 5.540897 5.152652
O 7.878882 3.974730 4.532185
O 8.316022 0.993628 -0.494182
O 7.886702 3.049827 0.381383
