46

Li 1.243940 0.760238 9.238223
Li 3.988823 0.725230 3.601247
Li 2.560116 3.762835 6.464022
Li 3.907452 3.751045 3.606917
Li 1.358772 5.263435 4.488954
Li 3.819313 5.228427 8.345633
Li 0.042596 8.266032 7.263154
Li 3.900685 8.254242 8.339963
V -0.018334 0.731445 2.464865
V 2.608370 0.650847 6.366422
V 1.363332 2.262487 4.457225
V 0.023549 3.842488 2.406007
V 3.833233 2.307473 8.360040
V 5.199766 5.154043 5.580458
V 2.621046 5.234642 1.517428
V 1.239380 6.765684 9.269952
V 3.974904 6.810670 3.586839
V 2.579163 8.345684 1.576286
Fe 0.061960 2.221679 7.342618
Fe 2.564254 2.306753 1.473646
Fe 0.038458 6.809950 2.508647
Fe 2.540752 6.724876 6.384559
O 0.716121 0.877574 5.936680
O 1.910890 0.833433 2.927783
O 0.501985 2.237593 1.116435
O 2.018023 2.067120 7.784935
O 4.491027 0.843457 6.947811
O 3.300874 0.766281 0.086914
O 3.197125 2.141224 4.963558
O 0.630799 3.618922 5.918715
O 1.915102 3.821656 2.958608
O 4.676543 2.288389 1.996067
O 1.886592 5.380771 7.790497
O 0.691822 5.336630 1.054510
O 3.381756 3.829176 0.107596
O 4.487039 3.647030 6.881458
O 0.584689 6.570317 5.942242
O 3.317110 5.346654 4.999068
O 4.507262 5.269478 2.115082
O 2.100727 6.740790 2.865858
O 3.131594 6.791586 0.205929
O 0.687611 8.324853 1.023685
O 1.971914 8.122119 7.808462
O 4.611012 6.644421 6.983322
O 3.321097 8.150227 5.065422
O 4.426380 8.332372 2.094399
