69

La 0.144402 1.325392 5.332465
La 4.287997 4.420106 6.740723
La 8.143730 4.920387 5.534528
La 3.962240 1.710588 4.046731
La 1.931313 6.006199 9.101115
La 1.008440 2.164526 1.949787
La 5.077030 5.369404 3.379518
La 3.008488 9.607393 8.299814
La 7.150113 12.676539 9.814826
La 9.212374 8.495579 4.806895
La 1.142280 5.056902 4.480428
La 5.210870 8.261780 5.910159
La 9.434714 11.290530 7.340172
La 3.210822 0.818912 -0.439868
La 7.372453 3.962255 0.933532
La 2.257071 8.715717 3.813215
La 6.259694 11.717223 5.201126
La 8.441096 7.537447 0.205900
La 10.325133 12.249845 3.971979
La 6.074908 9.100913 2.527480
Cu 7.257023 2.561205 3.649301
Cu 1.043072 3.654451 7.205259
Cu 10.359951 13.538832 9.288645
Cu 2.070781 7.309320 6.430578
Cu 4.148529 3.116985 1.429367
Cu 6.224876 10.428236 7.866354
Cu 8.292413 6.228917 2.870214
Cu 5.176238 6.771855 8.636579
Cu 9.327804 9.896628 2.091126
O 8.756799 2.338219 4.837666
O 0.453108 1.856151 7.665249
O 2.640615 2.530486 5.741832
O 6.791746 5.627690 7.193262
O 1.483357 0.603543 3.700954
O 5.675390 3.710950 5.108020
O 9.793081 6.830144 6.529057
O 3.686268 7.001826 7.463916
O 7.836227 4.362967 3.196214
O 5.766202 8.570154 8.176590
O 1.622359 5.462317 6.746667
O 3.694685 1.302008 1.752610
O 7.828028 10.119614 8.884654
O 9.908263 5.916695 3.913411
O 5.751898 2.796735 2.476756
O 8.902486 2.845649 -0.421303
O 6.838297 7.043461 4.566268
O 4.768615 11.245087 9.576479
O 2.690391 3.941157 3.132839
O 0.609876 8.108757 8.127560
O 1.450696 10.690453 9.698038
O 3.528919 6.485149 4.727107
O 5.609434 2.317548 -0.267614
O 7.682341 9.612185 6.161730
O 9.746530 5.414373 1.174159
O 2.533042 3.424479 0.396030
O 0.467412 7.629570 5.383189
O 6.676564 6.541138 1.827016
O 2.524625 9.124297 6.107335
O 8.748600 8.094867 2.544213
O 4.658004 10.713999 6.846973
O 6.664354 12.282326 7.536204
O 4.596951 4.963989 1.113278
O 0.543920 6.715355 2.751925
O 8.881361 12.957643 5.632901
O 4.735953 9.822762 4.158992
O 3.578695 7.895820 2.118114
O 7.703466 11.009426 3.540204
O 1.561306 11.221542 4.445651
O 9.920473 11.684743 1.636902
