22

Li 2.746519 3.786136 2.570345
Li 2.418654 3.341847 7.880182
Mn 1.550287 1.040404 1.397050
Mn 3.643864 6.317169 9.368934
Mn 0.026694 1.415546 4.112817
Mn 4.893191 5.570369 6.656902
B 0.054866 1.712374 9.231568
B 1.684346 0.948130 6.788614
B 3.321720 6.139284 3.881710
B 5.070476 5.536671 1.437132
O 0.652424 1.636160 6.105017
O 1.274753 1.478028 10.097232
O 0.221155 2.807937 8.502765
O 2.957727 1.576787 7.407508
O 1.073928 3.808816 1.346281
O 1.489439 4.371876 6.645996
O 3.464065 2.707101 3.868717
O 4.032613 3.477540 9.166348
O 2.166373 5.443900 3.170904
O 3.731108 5.808081 0.757721
O 5.043781 4.403597 2.073729
O 4.246985 5.505691 4.751386
