14

Li 2.043743 3.507826 1.488136
Li 0.751216 3.776702 4.269275
Li 5.135919 1.090367 -2.506437
Li 3.843393 0.821492 0.274702
Fe 1.500955 0.924969 2.901747
Fe 4.386181 3.611304 -1.138909
F 5.824443 5.371600 -1.321446
F 0.089355 2.871536 0.741950
F 2.982953 1.731063 1.619663
F 2.702313 4.429223 2.798381
F 3.184822 1.742888 -1.035542
F 2.904183 4.417398 0.143175
F 5.797780 0.185201 1.020889
F 0.062692 2.685265 3.084284
