42

Mn 2.519940 0.000000 3.515778
Mn 2.519940 6.846925 3.515778
P 5.001547 8.784549 2.394531
P 5.001547 11.756224 2.394531
P 1.791884 1.054248 6.556020
P 1.791884 5.792676 6.556020
P 2.275430 10.270387 -0.776450
P 2.764450 3.423462 7.808006
P 3.247996 7.901173 0.475536
P 3.247996 12.639601 0.475536
P 0.038333 1.937625 4.637025
P 0.038333 4.909300 4.637025
O 0.213590 3.423462 4.053688
O 1.118632 0.361641 7.749989
O 1.118632 6.485284 7.749989
O 1.121217 10.270387 7.301057
O 0.666217 2.004560 5.946911
O 0.666217 4.842364 5.946911
O 0.833768 1.010209 3.604934
O 0.833768 5.836716 3.604934
O 1.490172 8.522244 3.929397
O 1.490172 12.018530 3.929397
O 2.524259 0.232344 5.379564
O 2.524259 6.614581 5.379564
O 2.880312 2.205655 6.769549
O 2.880312 4.641270 6.769549
O 1.458451 3.423462 -0.057745
O 3.581430 10.270387 7.089301
O 2.159569 9.052579 0.262007
O 2.159569 11.488195 0.262007
O 2.515621 7.079268 1.651992
O 2.515621 13.461506 1.651992
O 3.549709 1.675319 3.102159
O 3.549709 5.171605 3.102159
O 4.206113 7.857134 3.426622
O 4.206113 12.683640 3.426622
O 4.373664 8.851485 1.084645
O 4.373664 11.689289 1.084645
O 3.918663 3.423462 -0.269501
O 3.921249 7.208565 -0.718433
O 3.921249 13.332208 -0.718433
O 4.826290 10.270387 2.977869
