76

Li 0.480799 2.568176 4.363168
Li 1.269401 4.364687 16.999635
Li 1.280768 6.010976 8.281974
Li 1.282775 9.491879 8.289714
Li 1.322413 2.612446 14.031594
Li 3.841286 7.792391 3.359734
Li 3.863804 9.531554 0.470282
Li 3.928420 2.602784 12.249189
Li 4.674101 7.751520 13.053787
Mn 1.278427 7.753358 5.276657
Mn 1.263746 0.768496 17.038668
Mn 2.115461 7.743952 13.150278
Mn 3.047642 2.581679 4.303095
Mn 3.873412 0.757023 9.182160
Mn 3.870617 4.421753 9.185782
Mn 3.864463 5.942028 0.418859
Cr 1.140982 7.750851 16.539192
Cr 1.182108 0.277113 11.489210
Cr 1.175017 4.876449 11.488451
Cr 1.426009 5.464583 2.702315
Cr 1.416319 10.033831 2.731740
Cr 1.439187 2.584627 7.759821
Cr 3.722073 7.754906 9.710131
Cr 3.694821 4.906552 14.713147
Cr 3.699385 0.279721 14.721965
Cr 3.980578 5.473652 5.986849
Cr 3.986136 10.032845 6.007083
Cr 3.999587 2.589667 0.916273
O 0.240629 2.561508 0.001786
O 0.241766 6.288922 6.479769
O 0.246541 9.203094 6.502889
O 0.510794 6.453816 3.678185
O 0.481180 9.044718 3.705579
O 0.513671 1.258036 8.153360
O 0.513609 3.908889 8.154424
O 0.487489 0.030240 1.370015
O 0.496957 5.145203 1.364724
O 0.817140 7.744716 14.894165
O 0.906482 6.351513 12.336109
O 0.923052 9.119991 12.357030
O 1.747134 1.139809 3.524846
O 1.750633 4.034320 3.510152
O 1.784261 2.586275 6.131117
O 2.075952 5.178174 10.112659
O 2.081195 10.321261 10.131459
O 2.047886 9.095447 16.902462
O 2.086650 6.434765 16.896090
O 2.063756 1.282990 12.401590
O 2.066777 3.872143 12.392755
O 2.305121 1.106082 15.203222
O 2.331652 4.086328 15.182903
O 2.368038 7.754423 8.755932
O 2.852245 2.586557 8.752735
O 2.837188 6.277960 2.233142
O 2.801244 9.242505 2.268080
O 3.012758 6.452378 5.075193
O 3.015846 9.049269 5.100153
O 3.050549 1.276691 0.547476
O 3.092714 3.933829 0.553180
O 3.093640 0.052748 7.363008
O 3.092034 5.125977 7.366368
O 3.362097 7.756867 11.355506
O 3.333440 6.386450 13.878222
O 3.339425 9.156201 13.909593
O 4.315705 1.123727 5.155375
O 4.309684 4.052622 5.152847
O 4.325616 2.585104 2.559282
O 4.618948 5.237369 16.054078
O 4.622663 10.292063 16.082829
O 4.661313 6.421226 9.338532
O 4.662924 9.089933 9.344723
O 4.608831 1.260926 13.776274
O 4.628926 3.941723 13.768874
O 4.898474 1.069569 10.985991
O 4.894404 4.089678 10.980065
O 4.902328 7.734086 17.451938
