22

Li 0.904191 4.375339 3.884159
Li 4.410388 2.699233 3.754419
Li 4.887520 4.874517 1.375234
Li 3.084229 5.736454 5.822452
Cr 2.202268 1.350671 1.884367
Cr 0.454859 2.186027 6.193835
Cr 3.985821 5.305107 3.599270
Fe 0.000244 0.000215 0.000449
Fe 1.783106 3.954899 1.715930
Fe 3.531143 3.119138 5.922606
O 1.165503 1.551250 8.325237
O 0.554021 2.404997 1.855224
O 0.956586 4.603680 -0.347207
O 2.397452 1.523844 6.173844
O 3.436492 2.910971 1.739538
O 1.597924 3.789910 5.945478
O 2.810928 3.741540 3.793902
O 3.025653 5.498050 1.544196
O 4.148869 5.522565 7.831042
O 4.637932 2.843963 7.938984
O 4.651839 4.720739 5.702782
O 5.160667 6.869615 3.404646
