38

Li 0.335923 2.880339 12.002736
Li 1.889510 2.529663 0.456707
Li 3.489971 2.223181 6.306224
Li 1.017328 4.574637 3.676864
Li 1.623192 5.316484 9.466524
Li 2.940841 5.511346 15.285152
V 0.108662 0.142144 17.035257
V 1.308287 2.508880 14.668151
V 2.419506 2.418118 3.427402
V 2.574543 4.838486 12.367565
V 1.253821 5.017836 6.489512
V 3.900220 2.497660 9.009599
V 5.001922 4.998014 6.904870
V 4.078149 5.005183 0.954412
O 1.096154 1.546707 16.241197
O 1.547656 0.955437 4.151810
O 1.621738 3.427243 13.149318
O 0.989329 2.547890 2.540663
O 4.298793 3.454723 7.483727
O 3.762523 5.964676 8.611748
F 1.415828 0.951829 13.338779
F 1.334344 1.603448 7.144792
F 1.456183 4.063000 16.081991
F 1.538330 2.485050 9.908378
F 0.872946 4.062524 8.232575
F 1.036369 4.790624 11.415363
F 3.572087 2.410817 14.089374
F 1.171830 3.468682 5.229833
F 4.013682 4.047483 10.449106
F 1.710383 5.005823 1.610251
F 4.105228 2.557166 4.251341
F 4.196873 5.016094 13.258187
F 3.401747 4.057542 2.647680
F 3.468221 5.043077 6.026971
F 3.669565 6.364837 11.403068
F 3.865896 3.445400 -0.351572
F 3.954276 6.574146 2.212524
F 4.297184 5.962788 -0.729111
