88

Li 0.878221 1.049945 0.068062
Li 3.936252 5.987127 9.783620
Li 3.871043 9.448191 4.652111
Li 5.751968 3.898923 -1.034903
Li 6.315864 0.990612 -0.921173
Li 8.825059 8.708510 8.600905
Li 8.416593 5.552406 3.380419
Li 8.617047 2.777970 3.957751
Fe 1.992617 8.928810 6.948163
Fe 2.386627 1.985572 8.478652
Fe 2.459269 6.906437 1.390565
Fe 2.851284 4.097953 3.055866
Fe 6.843318 5.784507 5.873287
Fe 7.262184 2.890616 7.297925
Fe 7.347978 7.718459 0.210274
Fe 7.714525 0.711091 1.861952
P 0.178020 4.382790 8.231013
P 1.101944 6.960210 9.473141
P 0.598374 9.068886 2.485683
P 1.228754 1.389318 4.398781
P 3.656785 6.298513 5.441175
P 4.227617 4.172310 7.396641
P 5.041231 0.512089 7.022293
P 3.709308 2.083767 0.412595
P 5.949153 7.767233 8.335548
P 4.627026 9.258806 1.625778
P 5.484914 5.659826 1.311952
P 6.078657 3.485756 3.199500
P 8.501405 8.392956 4.300695
P 9.077423 0.709387 6.184676
P 8.621969 2.788935 -0.765935
P 9.508731 5.408471 0.445360
O 0.088830 4.213264 6.779272
O 0.289672 8.315663 6.240419
O 0.832740 0.783078 7.879517
O 1.024672 5.712970 8.472190
O 0.958061 3.284180 8.951212
O 1.810482 8.036304 8.615912
O 2.093316 6.488269 -0.434897
O 0.283913 2.510617 1.010156
O 1.203090 0.597882 3.017029
O 0.562846 9.222847 1.025641
O 1.274691 5.243196 2.173282
O 1.787932 2.761386 4.020959
O 1.556834 7.912645 2.824958
O 2.099484 0.554414 5.293445
O 2.831477 5.565559 4.444890
O 3.334074 2.961967 7.073313
O 3.140479 7.715464 5.805222
O 3.568480 0.338534 7.701914
O 3.533516 5.463451 6.803785
O 4.273846 4.350332 8.852315
O 4.564035 7.448765 8.873388
O 2.694044 1.642945 10.325903
O 3.143554 3.205408 1.282821
O 3.790599 0.817241 1.374672
O 4.019050 5.747959 1.966770
O 3.864573 8.208335 0.823928
O 4.596829 3.402795 3.682418
O 5.043994 0.725837 5.584171
O 4.645549 9.008614 3.054436
O 5.192323 6.355762 5.083562
O 5.872542 1.526357 7.840106
O 5.715350 4.080204 6.733115
O 5.866938 8.952558 7.287412
O 6.680465 6.653517 7.539642
O 6.938851 8.327530 -1.584853
O 5.103853 2.315889 -0.213698
O 5.496248 5.570603 -0.159202
O 6.119507 4.295354 1.824113
O 6.105459 9.490582 0.943247
O 6.724389 2.127707 2.836479
O 6.459893 6.795063 1.697759
O 7.028975 4.245746 4.099280
O 7.667994 9.135521 3.308870
O 8.202325 1.927515 5.783441
O 7.946245 6.992622 4.663568
O 8.423432 4.534616 6.585060
O 9.037848 0.599301 7.652424
O 8.376824 9.227090 5.659201
O 9.432110 7.272638 7.650079
O 7.566196 3.197070 9.154419
O 7.912342 1.667870 0.062714
O 8.738982 6.457945 -0.374932
O 8.668140 4.037226 0.210541
O 8.847872 8.938982 0.817318
O 9.444680 1.501421 2.562019
O 9.431186 5.650626 1.875116
