48

Li 4.679696 1.417250 11.770179
Li 0.679691 0.821976 4.635252
Li 1.036433 6.252695 5.238594
Li 4.992830 3.047022 8.929509
Li 1.071530 2.314642 1.909572
Li 4.653119 5.316800 5.442383
Li 0.558649 3.498134 -0.774751
Li 5.039471 6.891975 2.626202
V 3.793334 0.694031 7.149494
V 7.934732 3.031743 11.268035
V 3.981591 6.383507 7.541244
V 3.999163 2.501978 4.165605
V 7.777069 5.158027 7.958592
V 7.788606 1.194824 4.579694
V 3.789412 4.584084 0.814254
V 0.017381 5.824009 0.388451
O 1.898251 0.766212 6.967515
O 7.447475 1.965068 12.451765
O 3.546438 5.316084 8.735474
O 3.489800 1.420838 5.316733
O 5.881375 5.239286 7.791918
O 5.905339 1.388096 4.434501
O 1.879893 4.596929 0.635462
O 7.467302 5.901778 6.133965
F 1.040134 3.084969 7.624427
F 3.952847 2.782940 10.199627
F 0.596627 3.106798 5.202041
F 6.087982 4.305643 10.629573
F 2.124320 7.662772 6.892196
F 0.333199 5.688798 3.769819
F 4.275383 2.361708 7.522813
F 5.032841 7.600056 8.413153
F 6.998839 2.189317 9.889227
F 3.064239 5.520924 6.170257
F 7.903288 7.267095 10.985270
F 2.144210 3.766309 3.492139
F 4.560916 7.572610 6.004507
F 0.370170 1.841645 0.359556
F 1.104926 7.004008 1.292619
F 5.043044 3.703545 5.059171
F 3.096032 1.614602 2.798293
F 0.017866 2.214780 3.086321
F 4.000568 6.678723 3.880429
F 4.581244 3.684696 2.626599
F 0.563373 7.027017 -1.111521
F 6.109532 8.231855 4.298659
F 4.262948 6.240304 1.201850
F 6.986039 6.003858 3.652205
