76

Li 0.000000 0.000000 0.000000
Li 0.000000 0.000000 0.000000
Li 0.000000 0.000000 0.000000
Li 0.000000 0.000000 0.000000
Li 0.000000 0.000000 0.000000
Li 0.000000 0.000000 0.000000
Li 0.000000 0.000000 0.000000
Li 0.000000 0.000000 0.000000
Li 0.000000 0.000000 0.000000
Cr 0.000000 0.000000 0.000000
Cr 0.000000 0.000000 0.000000
Cr 0.000000 0.000000 0.000000
Cr 0.000000 0.000000 0.000000
Cr 0.000000 0.000000 0.000000
Cr 0.000000 0.000000 0.000000
Cr 0.000000 0.000000 0.000000
Cr 0.000000 0.000000 0.000000
Cr 0.000000 0.000000 0.000000
Cr 0.000000 0.000000 0.000000
Cr 0.000000 0.000000 0.000000
Cr 0.000000 0.000000 0.000000
Cr 0.000000 0.000000 0.000000
Cr 0.000000 0.000000 0.000000
Cr 0.000000 0.000000 0.000000
Cr 0.000000 0.000000 0.000000
Cr 0.000000 0.000000 0.000000
Cr 0.000000 0.000000 0.000000
Cr 0.000000 0.000000 0.000000
O 0.000000 0.000000 0.000000
O 0.000000 0.000000 0.000000
O 0.000000 0.000000 0.000000
O 0.000000 0.000000 0.000000
O 0.000000 0.000000 0.000000
O 0.000000 0.000000 0.000000
O 0.000000 0.000000 0.000000
O 0.000000 0.000000 0.000000
O 0.000000 0.000000 0.000000
O 0.000000 0.000000 0.000000
O 0.000000 0.000000 0.000000
O 0.000000 0.000000 0.000000
O 0.000000 0.000000 0.000000
O 0.000000 0.000000 0.000000
O 0.000000 0.000000 0.000000
O 0.000000 0.000000 0.000000
O 0.000000 0.000000 0.000000
O 0.000000 0.000000 0.000000
O 0.000000 0.000000 0.000000
O 0.000000 0.000000 0.000000
O 0.000000 0.000000 0.000000
O 0.000000 0.000000 0.000000
O 0.000000 0.000000 0.000000
O 0.000000 0.000000 0.000000
O 0.000000 0.000000 0.000000
O 0.000000 0.000000 0.000000
O 0.000000 0.000000 0.000000
O 0.000000 0.000000 0.000000
O 0.000000 0.000000 0.000000
O 0.000000 0.000000 0.000000
O 0.000000 0.000000 0.000000
O 0.000000 0.000000 0.000000
O 0.000000 0.000000 0.000000
O 0.000000 0.000000 0.000000
O 0.000000 0.000000 0.000000
O 0.000000 0.000000 0.000000
O 0.000000 0.000000 0.000000
O 0.000000 0.000000 0.000000
O 0.000000 0.000000 0.000000
O 0.000000 0.000000 0.000000
O 0.000000 0.000000 0.000000
O 0.000000 0.000000 0.000000
O 0.000000 0.000000 0.000000
O 0.000000 0.000000 0.000000
O 0.000000 0.000000 0.000000
O 0.000000 0.000000 0.000000
O 0.000000 0.000000 0.000000
O 0.000000 0.000000 0.000000
