33

Li 2.525753 5.796065 1.931131
Li 5.230090 4.307735 1.794511
Li 7.826909 7.798461 -0.797622
Li 5.238878 9.222782 -0.666878
Li 7.835704 5.449910 3.304516
Li 2.700558 8.276036 3.563938
Cr 0.037418 0.048745 5.683229
Cr 5.188894 6.759747 0.627917
Cr 2.595149 5.826689 4.759267
Cr 5.234966 4.373867 4.625907
Cr 7.830828 5.383786 0.473114
Cr 2.631171 8.245415 0.735795
Ni 7.800450 7.813029 2.077440
Ni 2.613156 3.404246 3.155573
Ni 5.265344 9.208224 2.205510
O 6.427374 8.373158 0.874909
O 3.832876 7.458694 -0.650285
O 6.493821 5.994244 -0.784713
O 6.638421 8.648095 3.408035
O 3.823845 7.515962 1.929040
O 6.559297 6.010508 1.790848
O 1.393435 6.613407 0.397895
O 3.955478 5.152935 0.224635
O 6.571973 3.763401 0.136282
O 1.402474 6.556134 3.566023
O 3.780587 4.925099 3.347103
O 6.506490 3.747141 3.308174
O 1.119751 4.091619 1.951110
O 3.961373 2.527734 1.807555
O 1.270842 1.655568 0.339050
O 1.264939 4.280766 4.503585
O 4.106568 2.716877 4.360029
O 1.445725 1.883394 2.964037
