68

P 1.806064 1.481867 4.817025
P 1.806064 6.941759 0.020539
P 1.993875 3.948305 0.119097
P 1.993875 4.475321 4.915583
P 4.489976 0.263508 4.915583
P 4.489976 8.160118 0.119097
P 4.677788 2.729946 0.020539
P 4.677788 5.693681 4.817025
P 8.289915 2.729946 4.775948
P 8.289915 5.693681 9.572434
P 8.477726 0.263508 9.473876
P 8.477726 8.160118 4.677390
P 10.973828 3.948305 4.677390
P 10.973828 4.475321 9.473876
P 11.161639 1.481867 9.572434
P 11.161639 6.941759 4.775948
W 0.000000 5.391104 2.398243
W 0.000000 3.032522 7.194730
W 6.483851 1.179291 2.398243
W 6.483851 7.244335 7.194730
O 0.880429 1.614388 6.023715
O 0.880429 6.809238 1.227229
O 0.941961 4.497071 6.010420
O 0.941961 3.926555 1.213933
O 1.398541 0.767072 3.612886
O 1.398541 7.656554 8.409373
O 1.616696 5.256924 3.663921
O 1.616696 3.166702 8.460407
O 2.348334 5.422069 9.263339
O 2.348334 3.001557 4.466853
O 3.172782 0.884961 5.515134
O 3.172782 7.538665 0.718648
O 3.311069 3.326852 0.718648
O 3.311069 5.096774 5.515134
O 4.135517 7.213370 4.466853
O 4.135517 1.210256 9.263339
O 4.867155 7.378515 8.460407
O 4.867155 1.045111 3.663921
O 5.085311 4.978885 3.612886
O 5.085311 3.444741 8.409373
O 5.541890 0.285258 6.010420
O 5.541890 8.138368 1.213933
O 5.603422 5.826201 6.023715
O 5.603422 2.597425 1.227229
O 7.364281 2.597425 3.569257
O 7.364281 5.826201 8.365744
O 7.425812 0.285258 8.379040
O 7.425812 8.138368 3.582553
O 7.882392 3.444741 5.980087
O 7.882392 4.978885 1.183600
O 8.100548 1.045111 1.132566
O 8.100548 7.378515 5.929052
O 8.832186 1.210256 5.126120
O 8.832186 7.213370 0.329634
O 9.656633 3.326852 4.077838
O 9.656633 5.096774 8.874325
O 9.794921 0.884961 8.874325
O 9.794921 7.538665 4.077838
O 10.619368 3.001557 0.329634
O 10.619368 5.422069 5.126120
O 11.351006 3.166702 5.929052
O 11.351006 5.256924 1.132566
O 11.569162 0.767072 1.183600
O 11.569162 7.656554 5.980087
O 12.025742 3.926555 3.582553
O 12.025742 4.497071 8.379040
O 12.087273 1.614388 8.365744
O 12.087273 6.809238 3.569257
