44

Li 0.905105 4.683864 1.940999
Li 2.256165 4.643719 5.802238
Li 3.973651 1.992865 1.952149
Li 5.324711 2.033009 5.791088
Li 7.134921 3.268700 1.940999
Li 8.485981 3.308844 5.802238
Li 10.203467 0.657990 1.952149
Li 11.554527 0.617845 5.791088
V 1.519539 1.868953 4.067288
V 1.590846 1.936979 7.643828
V 4.638970 4.587834 3.793739
V 4.710277 4.519808 0.217199
V 7.749355 0.781901 4.067288
V 7.820662 0.713875 7.643828
V 10.868786 3.364730 3.793739
V 10.940092 3.432756 0.217199
F 0.675300 3.638229 3.551260
F 0.561668 3.730802 0.239044
F 0.947194 0.605285 5.628252
F 1.441467 1.249295 2.054715
F 1.960423 2.823457 5.762197
F 2.885887 0.317005 4.242136
F 2.997650 0.186922 7.332779
F 3.232166 2.837777 3.482690
F 3.343928 2.967860 0.392047
F 4.269392 0.172602 1.912108
F 4.788349 3.900149 5.904804
F 5.282622 3.256140 1.778164
F 5.668148 1.079947 4.089133
F 5.554516 0.987374 7.401349
F 6.905115 4.314335 3.551260
F 6.791484 4.221761 0.239044
F 7.177010 2.045569 5.628252
F 7.671283 1.401560 2.054715
F 8.190239 5.129106 5.762197
F 9.115703 2.333849 4.242136
F 9.227466 2.463932 7.332779
F 9.461981 5.114787 3.482690
F 9.573744 4.984704 0.392047
F 10.499208 2.478252 1.912108
F 11.018164 4.052414 5.904804
F 11.512438 4.696423 1.778164
F 11.897964 1.570907 4.089133
F 11.784332 1.663480 7.401349
