28

Li 1.757500 3.697961 1.277414
Li 3.078932 0.218586 3.827485
Li 6.593535 6.740621 1.277880
Li 7.915461 3.261204 3.828150
Mn 1.112452 0.192836 0.942486
Mn 3.723941 3.671840 3.490345
Mn 5.947917 3.288027 0.944767
Mn 8.558110 6.767254 3.495125
Si 0.898752 5.129399 3.885796
Si 3.937573 1.650127 1.335966
Si 5.734391 5.309003 3.885837
Si 8.774044 1.829467 1.337042
O 0.715046 2.088292 1.113944
O 1.280722 5.308417 0.375577
O 1.859572 4.034824 3.177005
O 0.930642 6.687041 3.229886
O 3.906206 3.209177 0.681519
O 2.976880 0.555880 0.627409
O 3.555749 1.828958 2.925354
O 4.121115 5.567896 3.663301
O 5.551546 1.391909 1.114301
O 6.116748 5.130415 0.375441
O 6.695317 6.403744 3.177206
O 5.766958 3.751908 3.228610
O 8.742164 0.270621 0.683201
O 7.812509 2.923700 0.628206
O 8.391862 1.650928 2.926274
O 8.956870 4.871381 3.664831
