32

V 3.795611 4.984468 0.759453
V 3.976659 2.495203 8.811798
V 2.568026 2.641294 3.331930
V 2.649614 4.778382 12.389407
V 1.293205 4.818381 6.634751
V 1.394177 2.473826 14.700650
V 0.080208 0.045041 -0.000501
V 5.245071 5.083263 6.506391
O 5.015022 6.259798 7.850233
O 2.263725 4.911038 0.445945
O 2.324433 3.823462 4.647964
O 2.264683 3.885994 13.674983
F 4.854232 6.444603 -0.104137
F 5.122261 4.122078 -1.246685
F 2.838008 5.902301 2.787962
F 4.827359 2.665170 2.525440
F 4.932913 3.948148 7.834963
F 4.905966 4.953810 11.538064
F 3.048389 3.476414 1.636272
F 3.034502 5.833010 10.863435
F 3.008309 4.820685 7.070586
F 2.796059 3.491107 10.770257
F 2.242050 1.517698 4.722447
F 2.232692 2.468625 8.373420
F 3.100839 2.568759 15.201906
F 0.335829 3.360276 7.584635
F 0.355740 2.358104 3.828381
F 0.439635 4.780278 12.966396
F 2.603472 1.511070 12.747813
F 0.214425 3.383999 16.721949
F 0.157045 1.038515 7.660992
F 0.485492 1.007061 15.638927
