20

Li 0.298927 5.546688 2.123887
Ti 3.378384 4.935211 -4.176809
Ti 6.500796 0.704072 1.583933
Ti 0.085798 6.067010 -0.454094
Nb 3.237640 1.901952 0.034346
Cu 3.267246 1.930107 2.649933
Cu 3.238527 5.003800 -1.535732
Cu 0.012950 3.074811 1.112048
O 5.356244 0.072162 -2.040434
O 3.119280 -0.001473 0.005675
O 5.664213 -0.829451 1.200042
O 4.505504 3.794903 -3.231215
O 2.010532 2.299290 -1.238807
O 5.399929 2.438518 -1.182187
O 1.163889 1.501307 1.253222
O 1.979706 0.085077 3.281116
O 4.560058 1.614570 1.238692
O 0.813096 4.766746 -1.197789
O 3.332428 3.900444 -0.001442
O 1.189542 3.842090 2.090641
