14

Li 0.709604 0.973819 1.144386
Li 2.947069 4.044384 4.752766
Mn 0.032979 2.553739 3.265267
Mn 2.960156 1.553863 3.920740
Mn 2.960156 4.062344 2.414923
Cu 5.240142 7.191263 8.450828
O 1.558006 2.138116 2.512611
O 1.484609 2.037391 4.591052
O 1.484609 4.373452 3.188736
O 4.210588 3.442302 3.799155
O 1.715990 4.672551 5.735090
O 4.420458 3.748749 6.340692
O 4.420458 6.066377 4.949442
O 4.381973 6.013562 7.066850
