16

Li 3.286336 0.000000 0.111816
Li 3.286336 3.230152 0.111816
V 1.616864 1.615076 2.973251
V 4.955808 4.845228 2.006883
Ge 1.684523 4.845228 2.448709
Ge 4.888149 1.615076 2.531426
O 0.181886 4.845228 1.532051
O 1.877405 1.615076 1.357685
O 1.783133 3.422159 3.502067
O 1.783133 6.268297 3.502067
O 3.022121 4.845228 1.279642
O 3.550551 1.615076 3.700493
O 4.789539 0.192007 1.478068
O 4.789539 3.038145 1.478068
O 4.695267 4.845228 3.622450
O 6.390786 1.615076 3.448084
