24

Mn 3.865597 2.297015 2.004870
Mn 4.840750 0.965074 6.649494
Mn 4.833041 -1.546710 6.617053
Co 0.978162 3.709843 2.040329
Co 0.985048 1.187708 1.928479
Co 1.936393 -0.122514 6.572888
Sb 1.916778 2.429054 4.574064
Sb 3.864740 -0.239108 9.214087
O 0.934843 3.761999 5.614907
O 0.206347 2.612428 3.148704
O 1.963373 2.508466 1.041595
O -0.003376 -0.084933 2.855141
O -0.066969 -0.001254 7.530005
O 0.926931 1.208370 5.568048
O 2.793002 3.510242 3.138922
O 2.859032 1.277667 3.176920
O 1.887757 -0.148316 0.922459
O 3.901977 2.316575 5.612391
O 3.089404 0.964267 7.827059
O 3.090815 -1.334439 7.783293
O 3.987657 -0.233058 5.641435
O 4.881071 0.997707 0.946045
O 5.621089 -0.344301 7.769537
O 4.847537 -1.589195 0.925166
