61

Co 1.016152 2.591828 0.490977
Co 0.033926 3.658568 -1.821263
Co 0.949008 2.592732 4.981564
Co 1.974646 5.178742 5.462081
Co 1.917736 1.522270 2.837719
Co 3.951386 3.070221 1.138041
Co 2.945006 0.454458 0.633641
Co 2.909183 0.497797 5.143420
Co 4.906724 5.674311 6.098464
Co 5.920133 4.628502 -0.499570
Co 3.922061 -0.584312 7.447594
Co 5.406321 0.581866 2.853803
Co 6.862289 3.570202 1.831202
Co 4.893876 5.669446 1.639548
Co 5.907039 1.003618 5.832026
Co 6.891860 3.577436 6.325389
Co 7.868669 2.509007 4.173966
Co 7.904167 -1.131072 1.463048
Co 8.896420 1.431720 1.974580
Co 8.838881 1.461336 6.487524
Co 9.797385 4.046858 2.478749
O 9.803077 -1.252195 0.796473
O 0.849688 4.292238 -0.395600
O 0.097177 5.309202 6.175523
O 0.886032 4.365679 4.253412
O 3.027997 5.954950 -2.298636
O 0.133737 1.743805 3.663835
O 1.184601 0.909454 1.385543
O 2.063810 3.193914 1.831210
O 3.137147 6.098437 2.340948
O 1.801881 3.436361 6.275085
O 1.011128 0.817118 5.710421
O 2.947228 2.252890 -0.056165
O 4.104116 4.814597 0.324303
O 2.709973 2.191149 4.220553
O 1.850042 -0.106349 3.793006
O 3.883446 5.060206 4.776659
O 5.095779 4.001829 -1.910398
O 3.813687 1.284569 2.009189
O 4.954462 3.900440 2.384129
O 2.149672 -0.382296 8.299090
O 5.859350 2.968663 0.470549
O 3.979511 1.066404 6.466851
O 7.676429 4.452575 -1.327468
O 4.867470 0.185452 4.507268
O 6.058717 2.717156 5.035252
O 4.755115 0.021520 8.864796
O 5.946391 -0.955193 2.167206
O 7.000174 1.813224 2.731337
O 7.866673 4.137285 3.150507
O 5.717404 -0.794032 6.595872
O 8.750139 3.230215 1.246181
O 6.929570 1.796288 7.064468
O 8.104714 0.640227 0.652843
O 6.709982 -2.050557 4.583196
O 8.664524 3.145551 5.588775
O 7.785589 0.845360 5.187551
O 9.629359 2.307984 3.294976
O 6.834438 -1.956203 9.247137
O 8.963889 -0.305838 2.702711
O 9.011243 -0.218909 7.386029
