88

Co 2.302554 3.714586 5.258606
Co 2.881323 3.843063 0.062907
Co 4.264036 1.999588 7.867461
Co 4.655198 5.161702 2.576676
Co 6.037911 0.680949 5.353692
Co 6.616680 0.552472 10.549391
Co 11.221788 3.714586 0.032179
Co 11.800557 3.843063 5.227877
Co 13.183270 1.999588 8.004894
Co 13.574432 5.161702 2.714109
Co 14.957146 0.680949 10.518662
Co 15.535915 0.552472 5.322963
P 0.895866 4.072253 2.425455
P 1.294573 2.925974 8.107673
P 3.242052 0.559789 5.069916
P 3.742190 0.646222 0.036549
P 5.177045 3.808336 5.327334
P 5.677182 3.721903 10.360701
P 7.624661 6.088088 2.816888
P 8.023369 0.910139 7.716239
P 9.815100 4.072253 2.865330
P 10.213808 2.925974 7.764682
P 12.161287 0.559789 0.220869
P 12.661424 0.646222 5.254236
P 14.096279 3.808336 10.545021
P 14.596416 3.721903 5.511654
P 16.543895 6.088088 2.473897
P 16.942603 0.910139 8.156115
O 0.168217 2.980204 1.667052
O 0.148327 5.480589 2.153826
O 0.846810 3.821396 3.934799
O 1.124484 3.682206 6.791357
O 1.578704 3.818923 9.324183
O 2.352341 1.805510 8.017148
O 2.365203 5.657610 5.305938
O 2.331220 4.317943 1.925793
O 2.412617 1.828688 4.855840
O 2.840437 5.785796 10.381652
O 2.928541 1.888712 0.360906
O 4.226183 0.764858 6.302711
O 4.292274 0.344424 3.918599
O 4.100493 3.490999 6.452768
O 4.223097 4.002465 4.059841
O 4.696137 0.840351 9.350626
O 4.818741 0.328885 1.161983
O 4.626960 3.506538 9.209384
O 4.693051 3.926972 1.011926
O 5.990693 5.050826 5.651691
O 6.078797 2.623682 5.090867
O 6.506617 4.990802 10.146636
O 6.588014 1.155829 7.216578
O 6.554032 2.495496 0.015153
O 6.566893 4.967624 2.726352
O 7.340530 0.656809 4.033398
O 7.794751 0.520092 1.500572
O 8.072424 0.659282 9.225584
O 8.770907 2.318475 7.444611
O 8.751017 6.142318 6.957837
O 9.087451 2.980204 3.623733
O 9.067561 5.480589 3.136959
O 9.766044 3.821396 1.355986
O 10.043718 3.682206 9.080997
O 10.497939 3.818923 6.548172
O 11.271575 1.805510 7.855207
O 11.284437 5.657610 10.566417
O 11.250455 4.317943 3.364992
O 11.331851 1.828688 0.434945
O 11.759671 5.785796 5.490703
O 11.847776 1.888712 4.929879
O 13.145417 0.764858 9.569644
O 13.211509 0.344424 1.372186
O 13.019727 3.490999 9.419586
O 13.142331 4.002465 1.230943
O 13.615372 0.840351 6.521728
O 13.737975 0.328885 4.128802
O 13.546194 3.506538 6.662971
O 13.612286 3.926972 4.278859
O 14.909927 5.050826 10.220664
O 14.998031 2.623682 0.199918
O 15.425851 4.990802 5.725719
O 15.507248 1.155829 8.655777
O 15.473266 2.495496 5.275632
O 15.486127 4.967624 2.564433
O 16.259764 0.656809 1.257387
O 16.713985 0.520092 3.790212
O 16.991659 0.659282 6.646771
O 17.690142 2.318475 8.427744
O 17.670252 6.142318 8.914518
