20

Li 1.167801 1.800579 7.138308
Li 0.580305 4.102580 2.620967
Li 2.903731 1.461607 -0.245614
Li 2.331152 3.653996 4.705056
Li 1.739571 5.972459 0.277260
Mn 2.035778 4.814143 7.265119
Ni 0.269894 5.253625 5.094603
Ni 0.893554 2.950685 0.143096
Ni 1.417626 0.717937 4.637290
Ni 2.652685 2.547245 2.254434
O 0.677075 3.582009 6.279942
O 0.174130 5.944009 1.632181
O 0.986034 2.258243 3.609435
O 1.415657 1.355957 1.212628
O 0.486324 4.618429 -1.045425
O 1.638527 6.386697 6.269741
O 1.818805 5.495342 3.729905
O 2.432127 3.239997 8.253300
O 2.657655 1.910822 5.679318
O 2.252946 4.131978 1.250590
