20

Li 0.000000 5.868766 -0.000000
Li 0.000000 1.467194 2.417697
Mn 2.629077 7.349657 0.837138
Mn 2.629077 4.387866 5.672532
Mn 2.629077 1.467194 0.837138
Cr 2.629077 5.868766 3.254835
Cr 2.629077 2.973491 3.254835
Cr 2.629077 8.764032 3.254835
O 1.563933 5.868766 1.557187
O 1.564175 2.903365 1.615483
O 1.564175 0.031013 1.615483
O 1.562014 7.319912 4.109065
O 1.562014 4.417620 4.109065
O 1.616352 1.467194 4.038479
O 3.696141 7.319911 2.400605
O 3.696141 4.417620 2.400605
O 3.641803 1.467193 2.471191
O 3.694222 5.868766 4.952483
O 3.693980 2.903365 4.894187
O 3.693980 0.031013 4.894187
