19

Li 2.711245 3.431332 -0.179548
Li 1.111802 4.489319 5.135337
Li 4.357152 6.006622 -0.226895
V 2.207664 1.528637 7.038856
V 1.237801 2.750542 2.799915
V 4.028538 3.928776 6.541297
V 2.857057 5.039159 2.108619
O 0.262957 1.013304 6.438323
O 0.538496 2.283899 8.612194
O 1.617120 1.342032 3.111039
O 3.629899 2.621726 7.627318
O 2.621683 1.960709 0.752379
O 1.329220 4.071644 1.583792
O 2.442549 4.836564 8.656114
O 2.746155 3.678148 3.243572
O 3.259713 5.264883 6.190854
O 4.320860 4.508708 0.618732
O 4.769265 5.563309 2.832604
F 2.081840 3.090974 6.146432
