12

Li 5.027793 -3.251539 2.189596
Li 0.002893 1.442543 0.466194
Li 0.002893 2.884550 0.930181
Ni 5.030238 -6.866411 3.413693
Ni 5.030238 -3.975266 4.343962
Ni 0.001062 2.165518 3.083840
O 2.306810 -2.485935 1.973100
O 2.568634 0.145642 3.024517
O 2.568634 -1.348490 2.543758
O 2.469112 -3.409635 3.936225
O 2.469112 -1.912050 4.418095
O 2.713421 -0.757456 4.992544
