78

Li 0.000000 4.723025 3.949415
Li 0.000000 0.000000 1.974714
Li 0.000000 0.000000 5.924129
Li 0.000000 0.000000 9.873544
Li 5.453679 7.449865 0.000000
Li 5.453679 2.726839 7.898843
Fe 10.907359 12.506827 9.873544
Fe 2.763085 8.434691 5.924129
Fe 0.000000 2.392902 9.873544
Fe 2.737747 6.072997 1.974714
Fe 5.475505 9.812844 9.873544
Fe 2.737747 3.739832 5.924129
Fe 8.169612 11.159897 5.924129
Fe 5.431854 5.086885 9.873544
Fe 8.169612 8.826732 1.974714
Fe 2.763085 1.381542 1.974714
Fe 8.144274 6.465038 5.924129
Fe 8.144274 13.518187 1.974714
Si 0.000000 7.121160 3.949415
Si 2.684552 8.463436 0.000000
Si 2.704905 6.113469 7.898843
Si 5.409810 9.808438 3.949415
Si 10.907359 7.778569 3.949415
Si 2.704905 3.694969 0.000000
Si 8.202454 11.204760 0.000000
Si 2.684552 10.788326 7.898843
Si 5.497549 5.091291 3.949415
Si 8.202454 8.786260 7.898843
Si 8.222807 6.436293 0.000000
Si 8.222807 4.111403 7.898843
O 0.858780 8.046770 5.024041
O 2.111567 9.758108 6.824217
O 1.252787 8.243773 10.773645
O 2.111567 9.416888 1.074613
O 1.105537 6.229467 8.707083
O 4.352472 10.664863 3.141175
O 1.157522 6.274408 3.202987
O 4.330592 10.608903 8.645271
O 3.173071 7.282182 0.746440
O 4.330592 8.863386 11.101818
O 3.246935 7.300166 7.090590
O 4.352472 8.810358 4.757668
O 2.262601 5.014071 6.904655
O 6.423922 10.698541 4.943603
O 1.105537 3.364697 11.040017
O 7.660424 12.318838 0.808241
O 1.157522 3.326721 4.695856
O 7.734288 12.310751 7.152402
O 2.262601 4.735120 0.994175
O 6.746027 10.859594 10.854083
O 0.858780 1.514335 2.874802
O 9.654572 13.529611 8.973456
O 4.161332 5.963436 8.893018
O 6.423922 9.054191 2.955240
O 4.483437 5.845538 2.955240
O 6.746027 8.936293 8.893018
O 1.252787 1.370119 8.973456
O 10.048579 13.385394 2.874802
O 4.161332 4.040136 10.854083
O 8.644758 10.164610 0.994175
O 3.173071 2.588978 7.152402
O 9.749837 11.573008 4.695856
O 3.246935 2.580891 0.808241
O 9.801822 11.535032 11.040017
O 4.483437 4.201188 4.943603
O 8.644758 9.885658 6.904655
O 6.554886 6.089371 4.757668
O 7.660424 7.599563 7.090590
O 6.576767 6.036343 11.101818
O 7.734288 7.617547 0.746440
O 6.576767 4.290826 8.645271
O 9.749837 8.625321 3.202987
O 6.554886 4.234866 3.141175
O 9.801822 8.670262 8.707083
O 8.795792 5.482841 1.074613
O 9.654572 6.655956 10.773645
O 8.795792 5.141621 6.824217
O 10.048579 6.852959 5.024041
