41

Li 2.203617 7.237737 5.473475
Li 7.085159 8.374281 7.479504
Li 5.579168 4.697972 5.752070
Li 4.211096 5.752464 7.453350
Li 2.093933 7.200707 9.581378
Li 0.524302 2.075558 7.349784
Li 7.105719 4.006918 10.187377
Ti 1.274653 1.741209 5.085679
Cr 7.580489 10.355142 9.112881
Cr 3.129368 4.274797 9.222623
Cr 5.718791 7.812014 4.987373
P 4.772684 9.720257 6.651938
P 2.252207 5.259369 4.324817
P 8.468476 6.184707 6.705352
P 0.403171 5.951525 7.498494
P 6.639458 6.823789 9.868011
P 4.046140 2.372227 7.519717
O 6.465735 10.239074 7.413034
O 3.309489 1.658349 4.683872
O 4.790617 8.332667 6.255231
O 2.575003 5.342907 3.126468
O 0.908111 6.053546 4.165316
O 3.772822 6.035207 5.150146
O 1.012737 2.736387 1.736873
O 6.855871 6.695295 6.397858
O 0.240424 6.269696 6.210959
O 0.556397 7.294971 8.057072
O 4.682779 3.218446 3.120906
O 7.100812 8.231244 9.151604
O 1.812726 3.772465 4.889657
O 4.331242 8.883886 11.014896
O 8.090070 4.831483 6.151948
O 0.004162 1.571948 3.553296
O 2.027453 5.515967 7.929656
O 7.757585 9.379567 12.322237
O 5.198740 5.907043 9.117110
O 8.102271 6.091722 10.171280
O 6.351747 6.926839 11.036049
O 5.404966 2.910697 6.812806
O 3.819372 3.665512 7.910143
O 2.356266 1.659987 6.778700
