35

Li 6.632856 -0.922251 4.357385
Li 5.978573 2.468418 9.412437
Li 3.363799 1.170544 1.269813
Li 2.854408 4.627918 6.296560
Li 0.267167 3.355327 6.182169
Mn 7.406478 -0.017848 1.940140
Mn 8.267356 -0.636495 6.874921
Mn 5.140087 1.496615 3.830311
Mn 4.279181 2.181955 6.849585
Mn 1.019222 4.288168 3.687789
Mn 1.973159 3.614197 8.772813
B 8.307809 2.632386 3.435727
B 7.234606 1.729275 6.066061
B 4.141171 3.895132 2.960705
B 5.224396 -0.241617 7.723989
B 2.076849 1.887777 4.685745
B 1.043296 0.975650 7.187656
O 8.208859 -1.162938 3.130033
O 9.247059 0.156564 8.726532
O 8.374131 2.468336 6.797701
O 7.199631 1.866496 2.680568
O 7.154204 0.421651 5.778384
O 6.151558 2.393324 5.618965
O 5.250835 -0.429392 3.018789
O 6.383648 -0.850715 8.119763
O 4.210859 2.602548 2.546121
O 5.146061 1.049336 8.139251
O 2.986931 4.497739 2.556750
O 4.097829 4.078760 7.686595
O 3.276489 1.328133 5.065237
O 1.999467 3.193437 5.009143
O 2.150258 1.721926 7.936797
O 0.961978 1.049386 4.054491
O 0.127109 3.504317 1.881337
O 1.100661 4.750672 7.481613
