36

Mn 0.000000 0.000000 0.000000
Mn 4.285278 5.834046 6.854440
Fe 1.246399 1.696867 1.993655
Fe 3.038879 4.137179 4.860785
Fe 5.531677 7.530914 8.848095
Fe 7.324158 9.971225 11.715224
P 0.389103 5.796270 5.241458
P 3.896175 2.245746 7.312584
P 6.427917 6.543099 4.582058
P 2.142639 5.124993 9.126822
P 4.674382 9.422347 6.396296
P 8.181453 5.871822 8.467422
O 0.940070 2.837977 4.803630
O 2.726705 5.105929 3.347705
O 0.510342 7.051611 4.301454
O 4.324831 2.935994 4.631496
O 0.039553 6.134608 6.332617
O 2.079363 5.427298 5.575694
O 2.205916 1.524434 7.649902
O 3.774936 3.660524 6.607942
O 1.558573 3.680017 8.748117
O 5.056517 5.766337 5.268562
O 0.771239 5.928065 8.840236
O 3.345208 9.076828 5.364989
O 5.225348 2.591264 8.343891
O 7.799318 5.740027 4.868644
O 3.514040 5.901755 8.440317
O 7.011984 7.988075 4.960763
O 4.795621 8.007569 7.100937
O 6.364641 10.143658 6.058978
O 6.491194 6.240795 8.133185
O 8.531003 5.533485 7.376262
O 4.245725 8.732098 9.077383
O 8.060214 4.616481 9.407425
O 5.843851 6.562163 10.361174
O 7.630486 8.830115 8.905249
