88

Ni 1.245992 0.903858 1.632987
Ni 1.245992 3.454774 8.232035
Ni 3.187732 5.262490 1.632987
Ni 3.187732 7.813406 8.232035
Ni 5.679715 0.903858 4.966060
Ni 5.679715 3.454774 11.565108
Ni 7.621455 5.262490 4.966060
Ni 7.621455 7.813406 11.565108
S 0.653283 3.785969 2.924473
S 0.653283 0.572663 9.523521
S 1.398787 6.004766 6.465522
S 1.398787 7.071131 13.064570
S 3.034937 1.646133 6.465522
S 3.034937 2.712499 13.064570
S 3.780441 8.144601 2.924473
S 3.780441 4.931295 9.523521
S 5.087006 3.785969 3.674574
S 5.087006 0.572663 10.273622
S 5.832510 6.004766 0.133525
S 5.832510 7.071131 6.732573
S 7.468660 1.646133 0.133525
S 7.468660 2.712499 6.732573
S 8.214164 4.931295 10.273622
S 8.214164 8.144601 3.674574
O 8.778967 6.147676 6.281739
O 8.778967 6.928220 12.880786
O 0.183131 8.676267 4.697558
O 0.183131 4.399629 11.296606
O 0.199287 4.095563 4.353774
O 0.199287 0.263070 10.952822
O 0.714424 2.269514 2.966945
O 0.714424 2.089119 9.565992
O 1.643457 6.291607 1.135590
O 1.643457 6.784289 7.734638
O 1.768479 8.511371 0.183889
O 1.768479 4.564525 6.782937
O 2.080534 0.045774 9.513345
O 2.080534 4.312858 2.914298
O 2.167559 6.385335 5.326065
O 2.167559 6.690561 11.925112
O 2.266165 2.026703 5.326065
O 2.266165 2.331929 11.925112
O 2.353190 8.671490 2.914298
O 2.353190 4.404407 9.513345
O 2.665244 0.205893 6.782937
O 2.665244 4.152739 0.183889
O 2.790266 1.932975 1.135590
O 2.790266 2.425657 7.734638
O 3.719300 6.628146 2.966945
O 3.719300 6.447751 9.565992
O 4.234436 4.621702 10.952822
O 4.234436 8.454195 4.353774
O 4.250593 4.317635 4.697558
O 4.250593 0.040997 11.296606
O 4.522203 1.789044 6.281739
O 4.522203 2.569588 12.880786
O 4.345244 6.147676 0.317309
O 4.345244 6.928220 6.916356
O 4.616854 4.399629 8.500537
O 4.616854 8.676267 1.901489
O 4.633010 4.095563 2.245273
O 4.633010 0.263070 8.844321
O 5.148147 2.269514 3.632103
O 5.148147 2.089119 10.231150
O 6.077181 6.291607 5.463457
O 6.077181 6.784289 12.062505
O 6.202203 4.564525 13.014206
O 6.202203 8.511371 6.415158
O 6.514257 4.312858 3.684750
O 6.514257 0.045774 10.283797
O 6.601282 6.385335 1.272983
O 6.601282 6.690561 7.872030
O 6.699888 2.026703 1.272983
O 6.699888 2.331929 7.872030
O 6.786913 4.404407 10.283797
O 6.786913 8.671490 3.684750
O 7.098968 4.152739 6.415158
O 7.098968 0.205893 13.014206
O 7.223990 1.932975 5.463457
O 7.223990 2.425657 12.062505
O 8.153023 6.447751 10.231150
O 8.153023 6.628146 3.632103
O 8.668160 4.621702 8.844321
O 8.668160 8.454195 2.245273
O 8.684316 0.040997 8.500537
O 8.684316 4.317635 1.901489
O 0.088479 1.789044 0.317309
O 0.088479 2.569588 6.916356
