36

V 1.328470 1.835119 2.156156
V 3.169695 4.378547 5.144532
V 5.826636 8.048786 9.456844
V 7.667861 10.592213 12.445220
Sn 0.000000 0.000000 0.000000
Sn 4.498166 6.213666 7.300688
P 0.327583 5.859014 5.457042
P 4.170582 2.524663 7.667731
P 6.747249 7.150489 5.126946
P 2.249083 5.276843 9.474429
P 4.825749 9.902670 6.933645
P 8.668748 6.568319 9.144333
O 1.148229 2.788992 4.982109
O 2.576495 5.235848 3.642494
O 0.558006 7.296047 4.730111
O 4.567446 3.429781 4.833894
O 0.069281 5.995476 6.578497
O 1.989656 5.442415 5.711586
O 2.508510 1.822530 8.069123
O 3.940159 3.800178 6.804238
O 1.921670 3.857407 9.066239
O 5.188445 6.115925 5.529520
O 0.690280 5.836096 8.942514
O 3.349937 9.324448 5.955825
O 5.646394 3.102885 8.645550
O 8.306052 6.591237 5.658861
O 3.807886 6.311408 9.071856
O 7.074661 8.569926 5.535136
O 5.056172 8.627154 7.797138
O 6.487821 10.604803 6.532252
O 7.006676 6.984918 8.889790
O 8.927051 6.431856 8.022878
O 4.428885 8.997552 9.767482
O 8.438325 5.131286 9.871265
O 6.419836 7.191485 10.958882
O 7.848103 9.638341 9.619266
