30

Li 5.372105 2.010957 1.767616
Li 5.372423 -2.578734 9.099639
Li 0.052639 0.071871 5.163822
Li 0.049007 4.520945 12.185589
Fe 1.850194 2.114857 4.357113
Fe 1.735096 2.248030 0.018389
Fe 1.847601 2.286746 11.526984
Fe 1.737049 2.165301 7.193954
Fe 3.562132 -0.204817 2.426759
Fe 3.561427 -0.171216 9.600688
Fe 3.487889 -0.256643 13.741767
Fe 3.490929 -0.112267 6.563900
O 1.803000 3.518892 12.930233
O 1.807450 0.887297 5.844650
F 0.005951 3.234916 10.616735
F 0.135798 3.074816 5.850121
F 0.007490 1.361562 3.506021
F 0.133586 1.508404 13.077910
F 1.695785 0.733377 10.538562
F 3.536611 2.837694 5.609757
F 1.901047 0.674080 1.077872
F 1.698227 3.683810 3.262593
F 3.534480 1.385691 12.833148
F 1.903194 -0.875002 8.304484
F 3.818403 1.377028 3.227752
F 3.614292 1.239869 8.157862
F 5.091594 0.407672 0.819839
F 3.613496 -1.621678 1.080328
F 3.815987 -1.779820 10.511381
F 5.093757 -0.945642 8.040874
