64

Li 1.823192 5.469577 14.992437
Li 1.823192 5.469577 7.496219
Li 5.469576 1.823192 7.496219
Li 5.469576 1.823192 0.000000
Mn 1.823192 1.823192 8.628463
Mn 1.823192 1.823192 1.132244
Mn 5.469576 5.469577 6.363975
Mn 5.469576 5.469577 13.860194
Si 7.273238 0.574123 5.326438
Si 7.273238 3.072262 12.822657
Si 0.574123 7.273240 12.822657
Si 0.574123 3.665915 5.326438
Si 3.072261 3.665915 12.822657
Si 3.072261 7.273240 5.326438
Si 3.665914 0.574123 12.822657
Si 3.665914 3.072262 5.326438
Si 3.626854 6.718646 2.169781
Si 3.626854 4.220508 9.665999
Si 4.220507 3.626855 2.169781
Si 4.220507 0.019530 9.665999
Si 6.718645 0.019530 2.169781
Si 6.718645 3.626855 9.665999
Si 0.019530 6.718646 9.665999
Si 0.019530 4.220508 2.169781
O 7.275944 2.176950 5.654938
O 7.275944 1.469435 13.151156
O 0.030141 1.165552 1.200250
O 0.030141 2.480833 8.696468
O 0.338683 3.985068 3.748109
O 0.338683 6.954086 11.244328
O 1.165552 0.030141 8.696468
O 1.165552 3.616244 1.200250
O 1.469434 7.275945 5.654953
O 1.469434 3.663209 13.151171
O 2.176950 3.663209 5.654953
O 2.176950 7.275945 13.151171
O 2.480832 0.030141 1.200250
O 2.480832 3.616244 8.696468
O 3.307701 3.985068 11.244328
O 3.307701 6.954086 3.748109
O 3.616243 2.480833 1.200250
O 3.616243 1.165552 8.696468
O 3.663208 1.469435 5.654938
O 3.663208 2.176950 13.151156
O 3.629560 5.823335 9.337500
O 3.629560 5.115820 1.841281
O 3.676525 6.127217 6.295969
O 3.676525 4.811937 13.792188
O 3.985067 3.307701 3.748109
O 3.985067 0.338684 11.244328
O 4.811936 3.676526 6.295969
O 4.811936 7.262629 13.792188
O 5.115818 0.016824 1.841266
O 5.115818 3.629560 9.337485
O 5.823334 3.629560 1.841266
O 5.823334 0.016824 9.337485
O 6.127216 7.262629 6.295969
O 6.127216 3.676526 13.792188
O 6.954084 0.338684 3.748109
O 6.954084 3.307701 11.244328
O 7.262627 4.811937 6.295969
O 7.262627 6.127217 13.792188
O 0.016824 5.823335 1.841281
O 0.016824 5.115820 9.337500
