24

Co 1.042829 3.664928 1.695768
Co 1.042327 1.211131 1.808492
Co 1.987423 -0.107250 6.372894
Ni 3.887555 2.286446 1.444856
Ni 4.861839 0.980293 5.992298
Ni 4.866238 -1.495697 6.104822
Te 1.961140 2.387662 4.188613
Te 3.891878 -0.205970 8.690905
O 1.026803 3.685327 5.159344
O 0.220980 2.481778 2.905916
O 1.745417 2.401107 0.723995
O 0.174417 -0.010004 2.741391
O 0.112202 -0.006138 7.305685
O 1.025233 1.188542 5.273576
O 2.712315 3.508034 2.736632
O 2.712420 1.186648 2.845397
O 1.944128 -0.103496 0.739255
O 3.977535 2.282271 4.906418
O 2.883389 0.945052 7.407167
O 2.893120 -1.252842 7.509281
O 3.785143 -0.200021 5.302096
O 4.922543 0.999919 0.331852
O 5.574876 -0.292709 7.175217
O 4.923786 -1.522484 0.448671
