27

Li 2.352613 5.801977 -1.692452
Li 4.992482 4.107472 3.055500
Li 2.416856 1.873258 7.806199
V 0.034314 0.021389 0.076242
V 1.965371 5.319315 0.954921
V 1.796406 1.339685 2.708004
V 3.679619 6.726911 3.489606
V 3.565912 2.930268 5.455679
V 0.103871 3.791995 5.757877
O 1.263642 0.295583 1.513497
O 3.155271 5.566766 2.382435
O 2.047054 3.156131 6.148283
F 0.579147 5.085424 -0.675455
F 3.484500 5.186325 0.016992
F 1.565623 7.472002 0.272167
F 5.258004 2.926034 1.838345
F 2.029858 3.048348 1.319183
F 0.187295 5.233385 1.546303
F 3.847966 0.698718 3.083290
F 2.370367 2.725927 3.847370
F 1.688896 7.707450 3.229950
F 5.243689 2.891089 4.652022
F 3.413942 5.216018 4.932088
F 4.133304 0.489427 8.513517
F 3.953772 0.762254 6.048710
F 0.320360 5.475532 4.489864
F 5.001644 3.116172 6.953018
