14

O 1.387102 1.741970 -0.808757
O 3.347015 3.342830 -0.485475
O 3.964868 2.629528 2.761144
O 2.004955 1.028668 2.437862
O 0.500736 4.697042 2.423735
O 4.851235 -0.325543 -0.471348
O 0.713889 3.497226 0.456320
O 1.681514 4.287584 -1.916029
O 4.638082 0.874272 1.496066
O 3.670456 0.083914 3.868416
P 1.776121 3.224629 -0.688928
P 3.575850 1.146870 2.641315
Sb 0.000000 0.000000 3.202903
Sb 0.000000 0.000000 0.000000
