12

Cr 3.380394 4.617427 5.425647
Cr 3.380415 1.690487 4.449653
Cr 0.000020 2.926966 3.735166
Cr 3.380367 4.617431 2.666484
S 5.045137 4.052590 7.151083
S 5.045069 6.891335 8.097608
S 1.715665 2.343428 5.429742
S 1.715685 5.182299 3.700233
S 1.715739 2.343536 2.753703
S 5.045164 6.891458 5.421576
S 1.766594 5.251866 6.458135
S 4.994228 3.983017 4.393173
