14

Li 2.550360 4.250595 0.269128
Li 4.250582 2.550353 -2.177266
Ni 0.000000 3.400477 -1.700234
Ni 0.000007 0.000000 2.446401
Ni 3.400477 0.000000 0.746165
Ni 0.000000 0.000000 0.000000
S 5.220246 5.400852 -2.692149
S 5.161785 1.580702 1.349577
S 1.400096 1.580702 3.230417
S 1.580695 1.400089 0.784020
S 1.580688 5.161778 -1.096826
S 1.639156 5.220246 -3.257704
S 5.220246 1.639156 -0.811306
S 5.400845 5.220246 -5.138554
