13

Zn 3.015066 4.149270 4.875859
Fe 3.015072 6.715028 5.759380
Fe 6.030126 5.732761 6.459364
Fe 3.015066 4.149265 2.467012
Fe 0.000000 0.000000 0.000000
O 4.557857 3.833946 6.531132
O 1.472269 2.026108 4.670256
O 1.472269 4.464585 3.220586
O 4.337751 3.531047 3.885849
O 1.608996 2.214269 2.602015
O 4.421136 6.084266 7.149711
O 1.692381 4.767488 5.865877
O 4.557863 6.272427 5.081474
