14

Li 2.676125 4.460203 0.301338
Li 4.460189 2.676118 -2.278319
Ti 0.000000 3.568164 -1.784077
Ti 0.000007 -0.000000 2.579664
Ti 3.568164 -0.000000 0.795586
Ti 0.000000 0.000000 0.000000
S 5.438521 5.535232 -2.782445
S 5.362669 1.697800 1.504349
S 1.601089 1.697800 3.385133
S 1.697793 1.601082 0.805472
S 1.697786 5.362661 -1.075319
S 1.773645 5.438520 -3.481319
S 5.438521 1.773645 -0.901657
S 5.535225 5.438520 -5.362114
