24

Fe 2.498040 4.366535 5.169147
Fe 2.494668 4.365903 0.046422
Fe 2.491840 1.456877 5.162076
Fe 2.491740 1.457447 10.284165
Fe 0.000489 2.909763 5.150753
Fe 4.987686 0.005747 10.292565
Fe 0.000619 5.816860 5.169342
Fe 4.987172 2.914008 10.310686
O 4.161385 4.367868 4.217496
O 4.138505 4.364392 1.012262
O 0.829508 1.455789 6.110953
O 0.848587 1.458394 9.316888
O 0.822280 4.364740 6.118036
O 0.852343 4.367835 9.342965
O 4.164977 1.458558 4.213787
O 4.135323 1.455191 0.986036
O 3.320261 2.920298 6.129409
O 3.342961 0.004429 9.326754
O 1.669959 0.004377 4.183415
O 1.642480 2.904364 0.984567
O 1.669455 2.904836 4.201568
O 1.641936 0.001373 0.968013
O 3.320096 5.817354 6.146978
O 3.344303 2.918993 9.343877
