24

Cr 2.571306 4.335121 5.356961
Cr 2.570945 4.335833 0.099936
Cr 2.652468 1.454313 5.553844
Cr 2.652186 1.453891 10.811448
Cr -0.000047 2.879309 5.459120
Cr -0.000016 0.000553 10.913982
Cr 0.000141 -0.000454 5.457247
Cr -0.000047 2.879280 0.001938
O 4.370821 4.333216 4.476534
O 4.372456 4.332725 0.975023
O 0.852488 1.456123 6.434196
O 0.851349 1.456963 9.935585
O 0.865943 4.337660 6.397504
O 0.864141 4.339199 9.978285
O 4.358342 1.451581 4.514795
O 4.358697 1.450622 0.933907
O 3.471416 2.910934 6.415984
O 3.465660 5.753032 9.946777
O 1.756568 0.035507 4.488894
O 1.753209 2.878672 0.960799
O 1.751940 2.878745 4.495051
O 1.757633 0.037085 0.964455
O 3.466798 5.753447 6.421933
O 3.470073 2.910730 9.950542
