12

Ti 1.609005 2.094106 2.432528
Ti 3.764891 2.478077 5.221651
Ti 3.764891 5.231133 3.507328
Ti 3.764891 5.231133 6.112329
O 2.352085 3.118865 3.629129
O 2.352085 3.118865 6.101690
O 2.352085 5.731959 4.474525
O 5.029457 4.603047 5.136846
O 2.382997 5.722601 6.930855
O 4.890224 4.741566 7.539695
O 4.890224 7.074394 6.087051
O 4.890224 7.074394 8.294419
