12

Fe 1.636115 2.081942 2.411711
Fe 3.629262 2.488135 5.142369
Fe 3.629262 5.125240 3.497139
Fe 3.629262 5.125240 5.993217
O 2.407887 3.156092 3.666201
O 2.407887 3.156092 5.961943
O 2.407887 5.581547 4.448761
O 5.057888 4.575618 5.094285
O 2.219737 5.625874 6.827282
O 4.819486 4.704737 7.450672
O 4.819486 6.985628 6.027680
O 4.819486 6.985628 8.186589
