24

Cr 0.749676 3.609194 1.093119
Cr 2.249036 0.730775 6.295132
Cr 0.749679 7.950226 4.106296
Cr 2.249036 5.070687 9.308319
Cr 2.249033 4.837496 4.004259
Cr 0.749679 3.843270 6.396555
Cr 2.249036 0.495518 1.197110
Cr 0.749679 8.184458 9.204006
O 0.749676 7.999262 0.709695
O 2.249036 0.680784 9.691920
O 0.749676 3.660087 4.487911
O 2.249036 5.020757 5.912612
O 0.749679 0.246566 7.467359
O 2.249033 8.434226 2.933986
O 0.749676 4.585524 8.136569
O 2.249033 4.094852 2.264588
O 0.749679 5.301745 0.164100
O 2.249033 3.378119 10.236642
O 0.749679 0.961928 5.035729
O 2.249033 7.719056 5.366011
O 2.249033 6.932740 8.931931
O 0.749679 1.746941 1.469508
O 0.749679 6.088286 3.730361
O 2.249033 2.592429 6.670578
