56
MgMo2P2O9
Mg         4.99229        6.70984       11.49440
Mg         4.99229        4.13261        4.03670
Mg         1.66410        3.09569       10.87869
Mg         1.66410        0.51846        3.42099
Mo         4.99229        2.68298       13.06432
Mo         1.66410        4.54532        1.85107
Mo         1.66410        6.29713        9.30877
Mo         4.99229        0.93117        5.60662
Mo         3.32820        0.00000        0.00000
Mo         3.32820        3.61415        7.45770
Mo         0.00000        3.61415        7.45770
Mo         0.00000        0.00000        0.00000
P          1.66410        2.73559       13.73605
P          4.99229        4.49271        1.17936
P          4.99229        6.34974        8.63704
P          1.66410        0.87856        6.27835
P          4.99229        2.87350       10.31566
P          4.99229        0.74066        2.85797
P          1.66410        6.48765       12.05742
P          1.66410        4.35480        4.59973
O          0.33726        4.36435        5.41824
O          3.66545        2.86394        9.49715
O          6.31913        0.75020        2.03946
O          2.99094        6.47810       12.87594
O          6.31913        2.86394        9.49715
O          2.99094        4.36435        5.41824
O          0.33726        6.47810       12.87594
O          3.66545        0.75020        2.03946
O          1.66410        2.26629        7.01914
O          4.99229        4.96202        7.89625
O          4.99229        5.88043        0.43854
O          1.66410        1.34787       14.47683
O          4.99229        0.82638       13.94248
O          1.66410        6.40192        0.97290
O          1.66410        4.44053        8.43060
O          4.99229        2.78778        6.48479
O          4.99229        1.57633       11.20962
O          1.66410        5.65197        3.70579
O          1.66410        5.19048       11.16347
O          4.99229        2.03782        3.75191
O          2.85776        0.81224        5.28854
O          6.18595        6.41606        9.62686
O          3.79864        4.42639        2.16916
O          0.47044        2.80191       12.74623
O          3.79864        6.41606        9.62686
O          0.47044        0.81224        5.28854
O          2.85776        2.80191       12.74623
O          6.18595        4.42639        2.16916
O          4.99229        3.39894        0.14571
O          1.66410        0.45960       11.05175
O          1.66410        3.15455        3.59406
O          4.99229        4.07375       11.32133
O          4.99229        0.21522        7.60340
O          1.66410        7.01309        7.31199
O          1.66410        3.82936       14.76967
O          4.99229        6.76870        3.86364
