	624

Cu	7.514868	7.514868	0.000000	    
O   	8.341248	6.404774	24.966842	    
C   	8.482446	4.689054	23.366241	    
C   	7.818602	5.352898	24.533236	    
C   	9.628367	5.252794	22.799867	    
H   	10.015609	6.006204	23.187109	    
Cu	18.828132	7.514868	0.000000	    
Cu	18.828132	18.828132	0.000000	    
Cu	7.514868	18.828132	0.000000	    
Cu	0.000000	7.514868	7.514868	    
Cu	18.828132	0.000000	7.514868	    
Cu	0.000000	18.828132	7.514868	    
Cu	7.514868	0.000000	7.514868	    
Cu	0.000000	18.828132	18.828132	    
Cu	7.514868	0.000000	18.828132	    
Cu	0.000000	7.514868	18.828132	    
Cu	18.828132	0.000000	18.828132	    
Cu	7.514868	20.686368	13.171500	    
Cu	18.828132	20.686368	13.171500	    
Cu	18.828132	5.656632	13.171500	    
Cu	7.514868	5.656632	13.171500	    
Cu	0.000000	20.686368	20.686368	    
Cu	18.828132	13.171500	20.686368	    
Cu	0.000000	5.656632	20.686368	    
Cu	7.514868	13.171500	20.686368	    
Cu	0.000000	5.656632	5.656632	    
Cu	7.514868	13.171500	5.656632	    
Cu	0.000000	20.686368	5.656632	    
Cu	18.828132	13.171500	5.656632	    
Cu	20.686368	7.514868	13.171500	    
Cu	5.656632	7.514868	13.171500	    
Cu	5.656632	18.828132	13.171500	    
Cu	20.686368	18.828132	13.171500	    
Cu	13.171500	7.514868	20.686368	    
Cu	5.656632	0.000000	20.686368	    
Cu	13.171500	18.828132	20.686368	    
Cu	20.686368	0.000000	20.686368	    
Cu	13.171500	18.828132	5.656632	    
Cu	20.686368	0.000000	5.656632	    
Cu	13.171500	7.514868	5.656632	    
Cu	5.656632	0.000000	5.656632	    
Cu	20.686368	20.686368	0.000000	    
Cu	5.656632	20.686368	0.000000	    
Cu	5.656632	5.656632	0.000000	    
Cu	20.686368	5.656632	0.000000	    
Cu	13.171500	20.686368	7.514868	    
Cu	5.656632	13.171500	7.514868	    
Cu	13.171500	5.656632	7.514868	    
Cu	20.686368	13.171500	7.514868	    
Cu	13.171500	5.656632	18.828132	    
Cu	20.686368	13.171500	18.828132	    
Cu	13.171500	20.686368	18.828132	    
Cu	5.656632	13.171500	18.828132	    
O   	19.938226	8.341248	24.966842	    
O   	18.001752	19.938226	24.966842	    
O   	6.404774	18.001752	24.966842	    
O   	8.341248	19.938226	1.376158	    
O   	6.404774	8.341248	1.376158	    
O   	18.001752	6.404774	1.376158	    
O   	19.938226	18.001752	1.376158	    
O   	24.966842	8.341248	6.404774	    
O   	18.001752	24.966842	6.404774	    
O   	1.376158	18.001752	6.404774	    
O   	8.341248	1.376158	6.404774	    
O   	24.966842	18.001752	19.938226	    
O   	8.341248	24.966842	19.938226	    
O   	1.376158	8.341248	19.938226	    
O   	18.001752	1.376158	19.938226	    
O   	6.404774	24.966842	8.341248	    
O   	6.404774	1.376158	18.001752	    
O   	24.966842	6.404774	18.001752	    
O   	19.938226	24.966842	18.001752	    
O   	1.376158	19.938226	18.001752	    
O   	19.938226	1.376158	8.341248	    
O   	24.966842	19.938226	8.341248	    
O   	1.376158	6.404774	8.341248	    
O   	18.001752	19.938226	1.376158	    
O   	6.404774	18.001752	1.376158	    
O   	8.341248	6.404774	1.376158	    
O   	19.938226	8.341248	1.376158	    
O   	18.001752	6.404774	24.966842	    
O   	19.938226	18.001752	24.966842	    
O   	8.341248	19.938226	24.966842	    
O   	6.404774	8.341248	24.966842	    
O   	1.376158	18.001752	19.938226	    
O   	8.341248	1.376158	19.938226	    
O   	24.966842	8.341248	19.938226	    
O   	18.001752	24.966842	19.938226	    
O   	1.376158	8.341248	6.404774	    
O   	18.001752	1.376158	6.404774	    
O   	24.966842	18.001752	6.404774	    
O   	8.341248	24.966842	6.404774	    
O   	19.938226	1.376158	18.001752	    
O   	19.938226	24.966842	8.341248	    
O   	1.376158	19.938226	8.341248	    
O   	6.404774	1.376158	8.341248	    
O   	24.966842	6.404774	8.341248	    
O   	6.404774	24.966842	18.001752	    
O   	1.376158	6.404774	18.001752	    
O   	24.966842	19.938226	18.001752	    
O   	8.341248	19.576274	11.795342	    
O   	19.938226	21.512748	11.795342	    
O   	18.001752	6.766726	11.795342	    
O   	6.404774	4.830252	11.795342	    
O   	8.341248	6.766726	14.547658	    
O   	6.404774	21.512748	14.547658	    
O   	18.001752	19.576274	14.547658	    
O   	19.938226	4.830252	14.547658	    
O   	24.966842	21.512748	19.576274	    
O   	18.001752	11.795342	19.576274	    
O   	1.376158	4.830252	19.576274	    
O   	8.341248	14.547658	19.576274	    
O   	24.966842	4.830252	6.766726	    
O   	8.341248	11.795342	6.766726	    
O   	1.376158	21.512748	6.766726	    
O   	18.001752	14.547658	6.766726	    
O   	6.404774	11.795342	21.512748	    
O   	6.404774	14.547658	4.830252	    
O   	24.966842	19.576274	4.830252	    
O   	19.938226	11.795342	4.830252	    
O   	1.376158	6.766726	4.830252	    
O   	19.938226	14.547658	21.512748	    
O   	24.966842	6.766726	21.512748	    
O   	1.376158	19.576274	21.512748	    
O   	18.001752	6.766726	14.547658	    
O   	6.404774	4.830252	14.547658	    
O   	8.341248	19.576274	14.547658	    
O   	19.938226	21.512748	14.547658	    
O   	18.001752	19.576274	11.795342	    
O   	19.938226	4.830252	11.795342	    
O   	8.341248	6.766726	11.795342	    
O   	6.404774	21.512748	11.795342	    
O   	1.376158	4.830252	6.766726	    
O   	8.341248	14.547658	6.766726	    
O   	24.966842	21.512748	6.766726	    
O   	18.001752	11.795342	6.766726	    
O   	1.376158	21.512748	19.576274	    
O   	18.001752	14.547658	19.576274	    
O   	24.966842	4.830252	19.576274	    
O   	8.341248	11.795342	19.576274	    
O   	19.938226	14.547658	4.830252	    
O   	19.938226	11.795342	21.512748	    
O   	1.376158	6.766726	21.512748	    
O   	6.404774	14.547658	21.512748	    
O   	24.966842	19.576274	21.512748	    
O   	6.404774	11.795342	4.830252	    
O   	1.376158	19.576274	4.830252	    
O   	24.966842	6.766726	4.830252	    
O   	21.512748	6.404774	11.795342	    
O   	6.766726	8.341248	11.795342	    
O   	4.830252	19.938226	11.795342	    
O   	19.576274	18.001752	11.795342	    
O   	21.512748	19.938226	14.547658	    
O   	19.576274	8.341248	14.547658	    
O   	4.830252	6.404774	14.547658	    
O   	6.766726	18.001752	14.547658	    
O   	11.795342	8.341248	19.576274	    
O   	4.830252	24.966842	19.576274	    
O   	14.547658	18.001752	19.576274	    
O   	21.512748	1.376158	19.576274	    
O   	11.795342	18.001752	6.766726	    
O   	21.512748	24.966842	6.766726	    
O   	14.547658	8.341248	6.766726	    
O   	4.830252	1.376158	6.766726	    
O   	19.576274	24.966842	21.512748	    
O   	19.576274	1.376158	4.830252	    
O   	11.795342	6.404774	4.830252	    
O   	6.766726	24.966842	4.830252	    
O   	14.547658	19.938226	4.830252	    
O   	6.766726	1.376158	21.512748	    
O   	11.795342	19.938226	21.512748	    
O   	14.547658	6.404774	21.512748	    
O   	4.830252	19.938226	14.547658	    
O   	19.576274	18.001752	14.547658	    
O   	21.512748	6.404774	14.547658	    
O   	6.766726	8.341248	14.547658	    
O   	4.830252	6.404774	11.795342	    
O   	6.766726	18.001752	11.795342	    
O   	21.512748	19.938226	11.795342	    
O   	19.576274	8.341248	11.795342	    
O   	14.547658	18.001752	6.766726	    
O   	21.512748	1.376158	6.766726	    
O   	11.795342	8.341248	6.766726	    
O   	4.830252	24.966842	6.766726	    
O   	14.547658	8.341248	19.576274	    
O   	4.830252	1.376158	19.576274	    
O   	11.795342	18.001752	19.576274	    
O   	21.512748	24.966842	19.576274	    
O   	6.766726	1.376158	4.830252	    
O   	6.766726	24.966842	21.512748	    
O   	14.547658	19.938226	21.512748	    
O   	19.576274	1.376158	21.512748	    
O   	11.795342	6.404774	21.512748	    
O   	19.576274	24.966842	4.830252	    
O   	14.547658	6.404774	4.830252	    
O   	11.795342	19.938226	4.830252	    
O   	21.512748	19.576274	24.966842	    
O   	6.766726	21.512748	24.966842	    
O   	4.830252	6.766726	24.966842	    
O   	19.576274	4.830252	24.966842	    
O   	21.512748	6.766726	1.376158	    
O   	19.576274	21.512748	1.376158	    
O   	4.830252	19.576274	1.376158	    
O   	6.766726	4.830252	1.376158	    
O   	11.795342	21.512748	6.404774	    
O   	4.830252	11.795342	6.404774	    
O   	14.547658	4.830252	6.404774	    
O   	21.512748	14.547658	6.404774	    
O   	11.795342	4.830252	19.938226	    
O   	21.512748	11.795342	19.938226	    
O   	14.547658	21.512748	19.938226	    
O   	4.830252	14.547658	19.938226	    
O   	19.576274	11.795342	8.341248	    
O   	19.576274	14.547658	18.001752	    
O   	11.795342	19.576274	18.001752	    
O   	6.766726	11.795342	18.001752	    
O   	14.547658	6.766726	18.001752	    
O   	6.766726	14.547658	8.341248	    
O   	11.795342	6.766726	8.341248	    
O   	14.547658	19.576274	8.341248	    
O   	4.830252	6.766726	1.376158	    
O   	19.576274	4.830252	1.376158	    
O   	21.512748	19.576274	1.376158	    
O   	6.766726	21.512748	1.376158	    
O   	4.830252	19.576274	24.966842	    
O   	6.766726	4.830252	24.966842	    
O   	21.512748	6.766726	24.966842	    
O   	19.576274	21.512748	24.966842	    
O   	14.547658	4.830252	19.938226	    
O   	21.512748	14.547658	19.938226	    
O   	11.795342	21.512748	19.938226	    
O   	4.830252	11.795342	19.938226	    
O   	14.547658	21.512748	6.404774	    
O   	4.830252	14.547658	6.404774	    
O   	11.795342	4.830252	6.404774	    
O   	21.512748	11.795342	6.404774	    
O   	6.766726	14.547658	18.001752	    
O   	6.766726	11.795342	8.341248	    
O   	14.547658	6.766726	8.341248	    
O   	19.576274	14.547658	8.341248	    
O   	11.795342	19.576274	8.341248	    
O   	19.576274	11.795342	18.001752	    
O   	14.547658	19.576274	18.001752	    
O   	11.795342	6.766726	18.001752	    
C   	21.653946	8.482446	23.366241	    
C   	17.860554	21.653946	23.366241	    
C   	4.689054	17.860554	23.366241	    
C   	8.482446	21.653946	2.976759	    
C   	4.689054	8.482446	2.976759	    
C   	17.860554	4.689054	2.976759	    
C   	21.653946	17.860554	2.976759	    
C   	23.366241	8.482446	4.689054	    
C   	17.860554	23.366241	4.689054	    
C   	2.976759	17.860554	4.689054	    
C   	8.482446	2.976759	4.689054	    
C   	23.366241	17.860554	21.653946	    
C   	8.482446	23.366241	21.653946	    
C   	2.976759	8.482446	21.653946	    
C   	17.860554	2.976759	21.653946	    
C   	4.689054	23.366241	8.482446	    
C   	4.689054	2.976759	17.860554	    
C   	23.366241	4.689054	17.860554	    
C   	21.653946	23.366241	17.860554	    
C   	2.976759	21.653946	17.860554	    
C   	21.653946	2.976759	8.482446	    
C   	23.366241	21.653946	8.482446	    
C   	2.976759	4.689054	8.482446	    
C   	17.860554	21.653946	2.976759	    
C   	4.689054	17.860554	2.976759	    
C   	8.482446	4.689054	2.976759	    
C   	21.653946	8.482446	2.976759	    
C   	17.860554	4.689054	23.366241	    
C   	21.653946	17.860554	23.366241	    
C   	8.482446	21.653946	23.366241	    
C   	4.689054	8.482446	23.366241	    
C   	2.976759	17.860554	21.653946	    
C   	8.482446	2.976759	21.653946	    
C   	23.366241	8.482446	21.653946	    
C   	17.860554	23.366241	21.653946	    
C   	2.976759	8.482446	4.689054	    
C   	17.860554	2.976759	4.689054	    
C   	23.366241	17.860554	4.689054	    
C   	8.482446	23.366241	4.689054	    
C   	21.653946	2.976759	17.860554	    
C   	21.653946	23.366241	8.482446	    
C   	2.976759	21.653946	8.482446	    
C   	4.689054	2.976759	8.482446	    
C   	23.366241	4.689054	8.482446	    
C   	4.689054	23.366241	17.860554	    
C   	2.976759	4.689054	17.860554	    
C   	23.366241	21.653946	17.860554	    
C   	8.482446	17.860554	10.194741	    
C   	21.653946	21.653946	10.194741	    
C   	17.860554	8.482446	10.194741	    
C   	4.689054	4.689054	10.194741	    
C   	8.482446	8.482446	16.148259	    
C   	4.689054	21.653946	16.148259	    
C   	17.860554	17.860554	16.148259	    
C   	21.653946	4.689054	16.148259	    
C   	17.860554	10.194741	17.860554	    
C   	8.482446	16.148259	17.860554	    
C   	8.482446	10.194741	8.482446	    
C   	17.860554	16.148259	8.482446	    
C   	4.689054	10.194741	21.653946	    
C   	4.689054	16.148259	4.689054	    
C   	21.653946	10.194741	4.689054	    
C   	21.653946	16.148259	21.653946	    
C   	17.860554	8.482446	16.148259	    
C   	4.689054	4.689054	16.148259	    
C   	8.482446	17.860554	16.148259	    
C   	21.653946	21.653946	16.148259	    
C   	17.860554	17.860554	10.194741	    
C   	21.653946	4.689054	10.194741	    
C   	8.482446	8.482446	10.194741	    
C   	4.689054	21.653946	10.194741	    
C   	8.482446	16.148259	8.482446	    
C   	17.860554	10.194741	8.482446	    
C   	17.860554	16.148259	17.860554	    
C   	8.482446	10.194741	17.860554	    
C   	21.653946	16.148259	4.689054	    
C   	21.653946	10.194741	21.653946	    
C   	4.689054	16.148259	21.653946	    
C   	4.689054	10.194741	4.689054	    
C   	10.194741	8.482446	17.860554	    
C   	16.148259	17.860554	17.860554	    
C   	10.194741	17.860554	8.482446	    
C   	16.148259	8.482446	8.482446	    
C   	10.194741	4.689054	4.689054	    
C   	16.148259	21.653946	4.689054	    
C   	10.194741	21.653946	21.653946	    
C   	16.148259	4.689054	21.653946	    
C   	16.148259	17.860554	8.482446	    
C   	10.194741	8.482446	8.482446	    
C   	16.148259	8.482446	17.860554	    
C   	10.194741	17.860554	17.860554	    
C   	16.148259	21.653946	21.653946	    
C   	10.194741	4.689054	21.653946	    
C   	16.148259	4.689054	4.689054	    
C   	10.194741	21.653946	4.689054	    
C   	20.990102	7.818602	24.533236	    
C   	18.524398	20.990102	24.533236	    
C   	5.352898	18.524398	24.533236	    
C   	7.818602	20.990102	1.809764	    
C   	5.352898	7.818602	1.809764	    
C   	18.524398	5.352898	1.809764	    
C   	20.990102	18.524398	1.809764	    
C   	24.533236	7.818602	5.352898	    
C   	18.524398	24.533236	5.352898	    
C   	1.809764	18.524398	5.352898	    
C   	7.818602	1.809764	5.352898	    
C   	24.533236	18.524398	20.990102	    
C   	7.818602	24.533236	20.990102	    
C   	1.809764	7.818602	20.990102	    
C   	18.524398	1.809764	20.990102	    
C   	5.352898	24.533236	7.818602	    
C   	5.352898	1.809764	18.524398	    
C   	24.533236	5.352898	18.524398	    
C   	20.990102	24.533236	18.524398	    
C   	1.809764	20.990102	18.524398	    
C   	20.990102	1.809764	7.818602	    
C   	24.533236	20.990102	7.818602	    
C   	1.809764	5.352898	7.818602	    
C   	18.524398	20.990102	1.809764	    
C   	5.352898	18.524398	1.809764	    
C   	7.818602	5.352898	1.809764	    
C   	20.990102	7.818602	1.809764	    
C   	18.524398	5.352898	24.533236	    
C   	20.990102	18.524398	24.533236	    
C   	7.818602	20.990102	24.533236	    
C   	5.352898	7.818602	24.533236	    
C   	1.809764	18.524398	20.990102	    
C   	7.818602	1.809764	20.990102	    
C   	24.533236	7.818602	20.990102	    
C   	18.524398	24.533236	20.990102	    
C   	1.809764	7.818602	5.352898	    
C   	18.524398	1.809764	5.352898	    
C   	24.533236	18.524398	5.352898	    
C   	7.818602	24.533236	5.352898	    
C   	20.990102	1.809764	18.524398	    
C   	20.990102	24.533236	7.818602	    
C   	1.809764	20.990102	7.818602	    
C   	5.352898	1.809764	7.818602	    
C   	24.533236	5.352898	7.818602	    
C   	5.352898	24.533236	18.524398	    
C   	1.809764	5.352898	18.524398	    
C   	24.533236	20.990102	18.524398	    
C   	7.818602	18.524398	11.361736	    
C   	20.990102	20.990102	11.361736	    
C   	18.524398	7.818602	11.361736	    
C   	5.352898	5.352898	11.361736	    
C   	7.818602	7.818602	14.981264	    
C   	5.352898	20.990102	14.981264	    
C   	18.524398	18.524398	14.981264	    
C   	20.990102	5.352898	14.981264	    
C   	18.524398	11.361736	18.524398	    
C   	7.818602	14.981264	18.524398	    
C   	7.818602	11.361736	7.818602	    
C   	18.524398	14.981264	7.818602	    
C   	5.352898	11.361736	20.990102	    
C   	5.352898	14.981264	5.352898	    
C   	20.990102	11.361736	5.352898	    
C   	20.990102	14.981264	20.990102	    
C   	18.524398	7.818602	14.981264	    
C   	5.352898	5.352898	14.981264	    
C   	7.818602	18.524398	14.981264	    
C   	20.990102	20.990102	14.981264	    
C   	18.524398	18.524398	11.361736	    
C   	20.990102	5.352898	11.361736	    
C   	7.818602	7.818602	11.361736	    
C   	5.352898	20.990102	11.361736	    
C   	7.818602	14.981264	7.818602	    
C   	18.524398	11.361736	7.818602	    
C   	18.524398	14.981264	18.524398	    
C   	7.818602	11.361736	18.524398	    
C   	20.990102	14.981264	5.352898	    
C   	20.990102	11.361736	20.990102	    
C   	5.352898	14.981264	20.990102	    
C   	5.352898	11.361736	5.352898	    
C   	11.361736	7.818602	18.524398	    
C   	14.981264	18.524398	18.524398	    
C   	11.361736	18.524398	7.818602	    
C   	14.981264	7.818602	7.818602	    
C   	11.361736	5.352898	5.352898	    
C   	14.981264	20.990102	5.352898	    
C   	11.361736	20.990102	20.990102	    
C   	14.981264	5.352898	20.990102	    
C   	14.981264	18.524398	7.818602	    
C   	11.361736	7.818602	7.818602	    
C   	14.981264	7.818602	18.524398	    
C   	11.361736	18.524398	18.524398	    
C   	14.981264	20.990102	20.990102	    
C   	11.361736	5.352898	20.990102	    
C   	14.981264	5.352898	5.352898	    
C   	11.361736	20.990102	5.352898	    
C   	21.090206	9.628367	22.799867	    
C   	16.714634	21.090206	22.799867	    
C   	5.252794	16.714634	22.799867	    
C   	9.628367	21.090206	3.543134	    
C   	5.252794	9.628367	3.543134	    
C   	16.714634	5.252794	3.543134	    
C   	21.090206	16.714634	3.543134	    
C   	22.799867	9.628367	5.252794	    
C   	16.714634	22.799867	5.252794	    
C   	3.543134	16.714634	5.252794	    
C   	9.628367	3.543134	5.252794	    
C   	22.799867	16.714634	21.090206	    
C   	9.628367	22.799867	21.090206	    
C   	3.543134	9.628367	21.090206	    
C   	16.714634	3.543134	21.090206	    
C   	5.252794	22.799867	9.628367	    
C   	5.252794	3.543134	16.714634	    
C   	22.799867	5.252794	16.714634	    
C   	21.090206	22.799867	16.714634	    
C   	3.543134	21.090206	16.714634	    
C   	21.090206	3.543134	9.628367	    
C   	22.799867	21.090206	9.628367	    
C   	3.543134	5.252794	9.628367	    
C   	16.714634	21.090206	3.543134	    
C   	5.252794	16.714634	3.543134	    
C   	9.628367	5.252794	3.543134	    
C   	21.090206	9.628367	3.543134	    
C   	16.714634	5.252794	22.799867	    
C   	21.090206	16.714634	22.799867	    
C   	9.628367	21.090206	22.799867	    
C   	5.252794	9.628367	22.799867	    
C   	3.543134	16.714634	21.090206	    
C   	9.628367	3.543134	21.090206	    
C   	22.799867	9.628367	21.090206	    
C   	16.714634	22.799867	21.090206	    
C   	3.543134	9.628367	5.252794	    
C   	16.714634	3.543134	5.252794	    
C   	22.799867	16.714634	5.252794	    
C   	9.628367	22.799867	5.252794	    
C   	21.090206	3.543134	16.714634	    
C   	21.090206	22.799867	9.628367	    
C   	3.543134	21.090206	9.628367	    
C   	5.252794	3.543134	9.628367	    
C   	22.799867	5.252794	9.628367	    
C   	5.252794	22.799867	16.714634	    
C   	3.543134	5.252794	16.714634	    
C   	22.799867	21.090206	16.714634	    
C   	9.628367	18.424294	9.628367	    
C   	16.714634	7.918706	9.628367	    
C   	9.628367	7.918706	16.714634	    
C   	16.714634	18.424294	16.714634	    
C   	22.799867	22.799867	18.424294	    
C   	16.714634	9.628367	18.424294	    
C   	3.543134	3.543134	18.424294	    
C   	9.628367	16.714634	18.424294	    
C   	22.799867	3.543134	7.918706	    
C   	9.628367	9.628367	7.918706	    
C   	3.543134	22.799867	7.918706	    
C   	16.714634	16.714634	7.918706	    
C   	22.799867	18.424294	3.543134	    
C   	3.543134	7.918706	3.543134	    
C   	22.799867	7.918706	22.799867	    
C   	3.543134	18.424294	22.799867	    
C   	16.714634	7.918706	16.714634	    
C   	9.628367	18.424294	16.714634	    
C   	16.714634	18.424294	9.628367	    
C   	9.628367	7.918706	9.628367	    
C   	3.543134	3.543134	7.918706	    
C   	9.628367	16.714634	7.918706	    
C   	22.799867	22.799867	7.918706	    
C   	16.714634	9.628367	7.918706	    
C   	3.543134	22.799867	18.424294	    
C   	16.714634	16.714634	18.424294	    
C   	22.799867	3.543134	18.424294	    
C   	9.628367	9.628367	18.424294	    
C   	3.543134	7.918706	22.799867	    
C   	22.799867	18.424294	22.799867	    
C   	3.543134	18.424294	3.543134	    
C   	22.799867	7.918706	3.543134	    
C   	7.918706	9.628367	9.628367	    
C   	18.424294	16.714634	9.628367	    
C   	18.424294	9.628367	16.714634	    
C   	7.918706	16.714634	16.714634	    
C   	18.424294	22.799867	22.799867	    
C   	18.424294	3.543134	3.543134	    
C   	7.918706	22.799867	3.543134	    
C   	7.918706	3.543134	22.799867	    
C   	18.424294	16.714634	16.714634	    
C   	7.918706	9.628367	16.714634	    
C   	7.918706	16.714634	9.628367	    
C   	18.424294	9.628367	9.628367	    
C   	7.918706	3.543134	3.543134	    
C   	7.918706	22.799867	22.799867	    
C   	18.424294	3.543134	22.799867	    
C   	18.424294	22.799867	3.543134	    
H   	20.336796	10.015609	23.187109	    
H   	16.327391	20.336796	23.187109	    
H   	6.006204	16.327391	23.187109	    
H   	10.015609	20.336796	3.155891	    
H   	6.006204	10.015609	3.155891	    
H   	16.327391	6.006204	3.155891	    
H   	20.336796	16.327391	3.155891	    
H   	23.187109	10.015609	6.006204	    
H   	16.327391	23.187109	6.006204	    
H   	3.155891	16.327391	6.006204	    
H   	10.015609	3.155891	6.006204	    
H   	23.187109	16.327391	20.336796	    
H   	10.015609	23.187109	20.336796	    
H   	3.155891	10.015609	20.336796	    
H   	16.327391	3.155891	20.336796	    
H   	6.006204	23.187109	10.015609	    
H   	6.006204	3.155891	16.327391	    
H   	23.187109	6.006204	16.327391	    
H   	20.336796	23.187109	16.327391	    
H   	3.155891	20.336796	16.327391	    
H   	20.336796	3.155891	10.015609	    
H   	23.187109	20.336796	10.015609	    
H   	3.155891	6.006204	10.015609	    
H   	16.327391	20.336796	3.155891	    
H   	6.006204	16.327391	3.155891	    
H   	10.015609	6.006204	3.155891	    
H   	20.336796	10.015609	3.155891	    
H   	16.327391	6.006204	23.187109	    
H   	20.336796	16.327391	23.187109	    
H   	10.015609	20.336796	23.187109	    
H   	6.006204	10.015609	23.187109	    
H   	3.155891	16.327391	20.336796	    
H   	10.015609	3.155891	20.336796	    
H   	23.187109	10.015609	20.336796	    
H   	16.327391	23.187109	20.336796	    
H   	3.155891	10.015609	6.006204	    
H   	16.327391	3.155891	6.006204	    
H   	23.187109	16.327391	6.006204	    
H   	10.015609	23.187109	6.006204	    
H   	20.336796	3.155891	16.327391	    
H   	20.336796	23.187109	10.015609	    
H   	3.155891	20.336796	10.015609	    
H   	6.006204	3.155891	10.015609	    
H   	23.187109	6.006204	10.015609	    
H   	6.006204	23.187109	16.327391	    
H   	3.155891	6.006204	16.327391	    
H   	23.187109	20.336796	16.327391	    
H   	10.015609	19.177704	10.015609	    
H   	16.327391	7.165296	10.015609	    
H   	10.015609	7.165296	16.327391	    
H   	16.327391	19.177704	16.327391	    
H   	23.187109	23.187109	19.177704	    
H   	16.327391	10.015609	19.177704	    
H   	3.155891	3.155891	19.177704	    
H   	10.015609	16.327391	19.177704	    
H   	23.187109	3.155891	7.165296	    
H   	10.015609	10.015609	7.165296	    
H   	3.155891	23.187109	7.165296	    
H   	16.327391	16.327391	7.165296	    
H   	23.187109	19.177704	3.155891	    
H   	3.155891	7.165296	3.155891	    
H   	23.187109	7.165296	23.187109	    
H   	3.155891	19.177704	23.187109	    
H   	16.327391	7.165296	16.327391	    
H   	10.015609	19.177704	16.327391	    
H   	16.327391	19.177704	10.015609	    
H   	10.015609	7.165296	10.015609	    
H   	3.155891	3.155891	7.165296	    
H   	10.015609	16.327391	7.165296	    
H   	23.187109	23.187109	7.165296	    
H   	16.327391	10.015609	7.165296	    
H   	3.155891	23.187109	19.177704	    
H   	16.327391	16.327391	19.177704	    
H   	23.187109	3.155891	19.177704	    
H   	10.015609	10.015609	19.177704	    
H   	3.155891	7.165296	23.187109	    
H   	23.187109	19.177704	23.187109	    
H   	3.155891	19.177704	3.155891	    
H   	23.187109	7.165296	3.155891	    
H   	7.165296	10.015609	10.015609	    
H   	19.177704	16.327391	10.015609	    
H   	19.177704	10.015609	16.327391	    
H   	7.165296	16.327391	16.327391	    
H   	19.177704	23.187109	23.187109	    
H   	19.177704	3.155891	3.155891	    
H   	7.165296	23.187109	3.155891	    
H   	7.165296	3.155891	23.187109	    
H   	19.177704	16.327391	16.327391	    
H   	7.165296	10.015609	16.327391	    
H   	7.165296	16.327391	10.015609	    
H   	19.177704	10.015609	10.015609	    
H   	7.165296	3.155891	3.155891	    
H   	7.165296	23.187109	23.187109	    
H   	19.177704	3.155891	23.187109	    
H   	19.177704	23.187109	3.155891	    

