          36
     5.52300      9.97800     10.00100     90.00000     90.00000     94.48000
 BA      1.035000     4.904000     2.922000
 BA      4.098000     0.070000     7.922000
 BA      3.708000     5.044000     7.079000
 BA      0.645000     9.878000     2.079000
 CR      0.398000     8.074000     6.133000
 CR      4.345000     1.874000     3.868000
 CR      0.788000     3.100000     8.869000
 CR      3.956000     6.848000     1.132000
  F      0.403000     1.280000     4.497000
  F      1.599000     3.612000     0.398000
  F      1.971000     7.555000     6.909000
  F      2.773000     2.393000     3.092000
  F      4.655000     3.576000     4.531000
  F      1.039000     4.756000     8.071000
  F     -0.553000     7.555000     7.643000
  F      0.478000     1.398000     9.532000
  F      1.210000     8.586000     4.602000
  F      2.383000     7.367000     1.908000
  F      0.014000     6.254000     0.503000
  F      4.340000     8.668000     5.504000
  F      4.907000     7.367000     2.642000
  F      1.535000     9.106000     9.682000
  F      0.089000     6.372000     5.470000
  F      4.265000     8.550000     0.469000
  F      5.296000     2.393000     2.358000
  F      4.730000     3.694000     9.498000
  F      2.818000     5.815000     4.681000
  F      3.144000     6.335000     9.603000
  F      3.208000     0.841000     0.319000
  F     -0.163000     2.581000     7.359000
  F      1.925000     4.132000     5.320000
  F      4.094000     0.218000     3.070000
  F      3.704000     5.192000     1.930000
  F      0.650000     9.730000     6.931000
  F      3.534000     1.362000     5.399000
  F      2.360000     2.581000     8.093000
